<?xml version="1.0" encoding="UTF-8"?>

<!-- generated on Sun Aug 23 16:38:50 2020 by Eclipse SUMO duarouter Version 1.6.0
<configuration xmlns:xsi="http://www.w3.org/2001/XMLSchema-instance" xsi:noNamespaceSchemaLocation="http://sumo.dlr.de/xsd/duarouterConfiguration.xsd">

    <input>
        <net-file value="/home/fede/sumo-1.6.0/tools/2020-08-23-16-38-42/osm.net.xml"/>
        <route-files value="/home/fede/sumo-1.6.0/tools/2020-08-23-16-38-42/osm.passenger.trips.xml"/>
    </input>

    <output>
        <output-file value="/home/fede/sumo-1.6.0/tools/2020-08-23-16-38-42/osm.passenger.trips.xml.tmp"/>
        <write-trips value="true"/>
    </output>

    <time>
        <begin value="0"/>
        <end value="3600.0"/>
    </time>

    <report>
        <no-warnings value="true"/>
        <ignore-errors value="true"/>
        <no-step-log value="true"/>
    </report>

</configuration>
-->

<routes xmlns:xsi="http://www.w3.org/2001/XMLSchema-instance" xsi:noNamespaceSchemaLocation="http://sumo.dlr.de/xsd/routes_file.xsd">
    <vType id="veh_passenger" vClass="passenger"/>
    <trip id="veh0" type="veh_passenger" depart="0.00" departLane="best" departSpeed="max" from="451111999#0" to="-21619581#0"/>
    <trip id="veh3" type="veh_passenger" depart="12.76" departLane="best" departSpeed="max" from="531339540#0" to="-463966362"/>
    <trip id="veh4" type="veh_passenger" depart="17.02" departLane="best" from="221648093#1" to="-21619581#0"/>
    <trip id="veh5" type="veh_passenger" depart="21.27" departLane="best" from="136778240#1" to="22278551#2"/>
    <trip id="veh6" type="veh_passenger" depart="25.53" departLane="best" departSpeed="max" from="463966362" to="23648490"/>
    <trip id="veh7" type="veh_passenger" depart="29.78" departLane="best" from="136778240#2" to="242365079#3"/>
    <trip id="veh10" type="veh_passenger" depart="42.55" departLane="best" from="633723098" to="21619577#3"/>
    <trip id="veh11" type="veh_passenger" depart="46.80" departLane="best" departSpeed="max" from="-22278551#2" to="-463966362"/>
    <trip id="veh12" type="veh_passenger" depart="51.06" departLane="best" departSpeed="max" from="51574172" to="48393713"/>
    <trip id="veh14" type="veh_passenger" depart="59.57" departLane="best" departSpeed="max" from="221648092" to="23648490"/>
    <trip id="veh16" type="veh_passenger" depart="68.08" departLane="best" from="47034519#2" to="-21619598#0"/>
    <trip id="veh19" type="veh_passenger" depart="80.84" departLane="best" departSpeed="max" from="451111999#0" to="21619595#2"/>
    <trip id="veh20" type="veh_passenger" depart="85.10" departLane="best" departSpeed="max" from="463966362" to="26539416#1"/>
    <trip id="veh22" type="veh_passenger" depart="93.61" departLane="best" departSpeed="max" from="-625454232" to="21619598#3"/>
    <trip id="veh23" type="veh_passenger" depart="97.86" departLane="best" departSpeed="max" from="93248674#0" to="39354097#2"/>
    <trip id="veh24" type="veh_passenger" depart="102.12" departLane="best" departSpeed="max" from="51574172" to="48393713"/>
    <trip id="veh25" type="veh_passenger" depart="106.37" departLane="best" from="19788542#0" to="-21619581#0"/>
    <trip id="veh27" type="veh_passenger" depart="114.88" departLane="best" departSpeed="max" from="130504335#0" to="625454232"/>
    <trip id="veh29" type="veh_passenger" depart="123.39" departLane="best" departSpeed="max" from="463966362" to="221567773"/>
    <trip id="veh30" type="veh_passenger" depart="127.65" departLane="best" from="531339540#1" to="221648093#4"/>
    <trip id="veh32" type="veh_passenger" depart="136.16" departLane="best" departSpeed="max" from="39910453" to="18908030"/>
    <trip id="veh33" type="veh_passenger" depart="140.41" departLane="best" departSpeed="max" from="39910453" to="51574158"/>
    <trip id="veh35" type="veh_passenger" depart="148.92" departLane="best" from="93248674#1" to="22278551#2"/>
    <trip id="veh36" type="veh_passenger" depart="153.18" departLane="best" departSpeed="max" from="-22278551#2" to="-21619598#0"/>
    <trip id="veh39" type="veh_passenger" depart="165.94" departLane="best" departSpeed="max" from="93248674#0" to="23054587#2"/>
    <trip id="veh42" type="veh_passenger" depart="178.71" departLane="best" departSpeed="max" from="46930593" to="23054590"/>
    <trip id="veh43" type="veh_passenger" depart="182.96" departLane="best" from="21619569#0" to="39354097#3"/>
    <trip id="veh44" type="veh_passenger" depart="187.22" departLane="best" departSpeed="max" from="-487890818" to="221648093#4"/>
    <trip id="veh45" type="veh_passenger" depart="191.47" departLane="best" from="22278550#3" to="625454232"/>
    <trip id="veh50" type="veh_passenger" depart="212.75" departLane="best" from="-136778240#0" to="21619577#3"/>
    <trip id="veh51" type="veh_passenger" depart="217.00" departLane="best" departSpeed="max" from="-136778240#6" to="625454232"/>
    <trip id="veh53" type="veh_passenger" depart="225.51" departLane="best" from="21619588#0" to="-21619598#0"/>
    <trip id="veh57" type="veh_passenger" depart="242.53" departLane="best" from="23054587#1" to="23648490"/>
    <trip id="veh60" type="veh_passenger" depart="255.30" departLane="best" departSpeed="max" from="130504335#0" to="21619569#1"/>
    <trip id="veh61" type="veh_passenger" depart="259.55" departLane="best" departSpeed="max" from="93248674#0" to="39354097#5"/>
    <trip id="veh62" type="veh_passenger" depart="263.81" departLane="best" departSpeed="max" from="221651080" to="23054583#0"/>
    <trip id="veh63" type="veh_passenger" depart="268.06" departLane="best" departSpeed="max" from="21619598#0" to="242365079#3"/>
    <trip id="veh66" type="veh_passenger" depart="280.83" departLane="best" from="20280385#1" to="39354097#5"/>
    <trip id="veh67" type="veh_passenger" depart="285.08" departLane="best" departSpeed="max" from="130504335#0" to="-46930593"/>
    <trip id="veh68" type="veh_passenger" depart="289.34" departLane="best" departSpeed="max" from="625454227" to="242365079#3"/>
    <trip id="veh70" type="veh_passenger" depart="297.84" departLane="best" departSpeed="max" from="-22278551#2" to="221648093#4"/>
    <trip id="veh71" type="veh_passenger" depart="302.10" departLane="best" from="509537336#0" to="448723604"/>
    <trip id="veh72" type="veh_passenger" depart="306.35" departLane="best" departSpeed="max" from="93248674#0" to="-463966362"/>
    <trip id="veh73" type="veh_passenger" depart="310.61" departLane="best" departSpeed="max" from="221648092" to="21619577#3"/>
    <trip id="veh74" type="veh_passenger" depart="314.86" departLane="best" from="-633723106#2" to="221648093#4"/>
    <trip id="veh77" type="veh_passenger" depart="327.63" departLane="best" from="93248674#2" to="509537336#2"/>
    <trip id="veh78" type="veh_passenger" depart="331.88" departLane="best" from="93248659#3" to="625454232"/>
    <trip id="veh81" type="veh_passenger" depart="344.65" departLane="best" departSpeed="max" from="221648092" to="-21619598#0"/>
    <trip id="veh82" type="veh_passenger" depart="348.90" departLane="best" departSpeed="max" from="221648092" to="633723106#1"/>
    <trip id="veh84" type="veh_passenger" depart="357.41" departLane="best" departSpeed="max" from="-625454232" to="19788542#1"/>
    <trip id="veh85" type="veh_passenger" depart="361.67" departLane="best" from="93248659#3" to="242365079#3"/>
    <trip id="veh86" type="veh_passenger" depart="365.92" departLane="best" departSpeed="max" from="-21619598#3" to="242365079#3"/>
    <trip id="veh89" type="veh_passenger" depart="378.69" departLane="best" from="20280385#0" to="-46930593"/>
    <trip id="veh92" type="veh_passenger" depart="391.45" departLane="best" from="221648093#0" to="242365079#3"/>
    <trip id="veh94" type="veh_passenger" depart="399.96" departLane="best" from="20280385#1" to="221567773"/>
    <trip id="veh96" type="veh_passenger" depart="408.47" departLane="best" from="93248674#1" to="93248659#5"/>
    <trip id="veh98" type="veh_passenger" depart="416.98" departLane="best" departSpeed="max" from="221648092" to="-509521738"/>
    <trip id="veh100" type="veh_passenger" depart="425.49" departLane="best" from="39910457" to="652398702"/>
    <trip id="veh101" type="veh_passenger" depart="429.75" departLane="best" departSpeed="max" from="463966362" to="-136778240#5"/>
    <trip id="veh103" type="veh_passenger" depart="438.26" departLane="best" departSpeed="max" from="463966362" to="625454232"/>
    <trip id="veh104" type="veh_passenger" depart="442.51" departLane="best" from="-531339542" to="-46930593"/>
    <trip id="veh105" type="veh_passenger" depart="446.77" departLane="best" from="21619569#2" to="26539416#1"/>
    <trip id="veh106" type="veh_passenger" depart="451.02" departLane="best" from="47034894#2" to="136778240#6"/>
    <trip id="veh114" type="veh_passenger" depart="485.06" departLane="best" departSpeed="max" from="531339540#0" to="23648490"/>
    <trip id="veh116" type="veh_passenger" depart="493.57" departLane="best" departSpeed="max" from="-625454232" to="-46930593"/>
    <trip id="veh118" type="veh_passenger" depart="502.08" departLane="best" departSpeed="max" from="531339540#0" to="136778240#6"/>
    <trip id="veh119" type="veh_passenger" depart="506.34" departLane="best" departSpeed="max" from="20280393" to="-463966362"/>
    <trip id="veh120" type="veh_passenger" depart="510.59" departLane="best" departSpeed="max" from="221648092" to="26539416#1"/>
    <trip id="veh123" type="veh_passenger" depart="523.36" departLane="best" departSpeed="max" from="21619598#0" to="625454232"/>
    <trip id="veh126" type="veh_passenger" depart="536.12" departLane="best" departSpeed="max" from="451111999#0" to="221577836#0"/>
    <trip id="veh127" type="veh_passenger" depart="540.38" departLane="best" departSpeed="max" from="93248674#0" to="23054590"/>
    <trip id="veh128" type="veh_passenger" depart="544.63" departLane="best" departSpeed="max" from="625454227" to="-46930593"/>
    <trip id="veh129" type="veh_passenger" depart="548.89" departLane="best" departSpeed="max" from="-487890818" to="221648093#4"/>
    <trip id="veh130" type="veh_passenger" depart="553.14" departLane="best" departSpeed="max" from="221648092" to="242365079#3"/>
    <trip id="veh132" type="veh_passenger" depart="561.65" departLane="best" from="-136778240#1" to="625454232"/>
    <trip id="veh134" type="veh_passenger" depart="570.16" departLane="best" from="221577841#1" to="-21619598#0"/>
    <trip id="veh135" type="veh_passenger" depart="574.42" departLane="best" departSpeed="max" from="463966362" to="21619577#3"/>
    <trip id="veh136" type="veh_passenger" depart="578.67" departLane="best" from="21619592#2" to="509537336#2"/>
    <trip id="veh138" type="veh_passenger" depart="587.18" departLane="best" departSpeed="max" from="221648092" to="19788542#0"/>
    <trip id="veh139" type="veh_passenger" depart="591.43" departLane="best" departSpeed="max" from="-487890818" to="221648093#2"/>
    <trip id="veh140" type="veh_passenger" depart="595.69" departLane="best" departSpeed="max" from="531339540#0" to="26539416#1"/>
    <trip id="veh141" type="veh_passenger" depart="599.94" departLane="best" departSpeed="max" from="21619581#0" to="23648490"/>
    <trip id="veh143" type="veh_passenger" depart="608.45" departLane="best" departSpeed="max" from="221651080" to="242365079#3"/>
    <trip id="veh144" type="veh_passenger" depart="612.71" departLane="best" departSpeed="max" from="463966362" to="221648093#4"/>
    <trip id="veh147" type="veh_passenger" depart="625.47" departLane="best" departSpeed="max" from="-22278551#2" to="22699958#1"/>
    <trip id="veh148" type="veh_passenger" depart="629.73" departLane="best" departSpeed="max" from="51574172" to="48393713"/>
    <trip id="veh150" type="veh_passenger" depart="638.24" departLane="best" departSpeed="max" from="130504335#0" to="-21619581#0"/>
    <trip id="veh151" type="veh_passenger" depart="642.49" departLane="best" departSpeed="max" from="20280393" to="221648093#4"/>
    <trip id="veh154" type="veh_passenger" depart="655.26" departLane="best" departSpeed="max" from="130504335#0" to="47034520#1"/>
    <trip id="veh155" type="veh_passenger" depart="659.51" departLane="best" from="325213134" to="18908030"/>
    <trip id="veh156" type="veh_passenger" depart="663.77" departLane="best" departSpeed="max" from="463966362" to="-136778240#4"/>
    <trip id="veh157" type="veh_passenger" depart="668.02" departLane="best" departSpeed="max" from="51574170" to="48393713"/>
    <trip id="veh158" type="veh_passenger" depart="672.28" departLane="best" from="-451111309#0" to="221648093#4"/>
    <trip id="veh160" type="veh_passenger" depart="680.79" departLane="best" departSpeed="max" from="20280393" to="509537336#2"/>
    <trip id="veh164" type="veh_passenger" depart="697.81" departLane="best" departSpeed="max" from="531339540#0" to="26539416#1"/>
    <trip id="veh168" type="veh_passenger" depart="714.83" departLane="best" departSpeed="max" from="20280393" to="39354097#1"/>
    <trip id="veh172" type="veh_passenger" depart="731.85" departLane="best" from="21619569#2" to="21619577#3"/>
    <trip id="veh174" type="veh_passenger" depart="740.36" departLane="best" from="47034520#1" to="-21619598#0"/>
    <trip id="veh175" type="veh_passenger" depart="744.61" departLane="best" departSpeed="max" from="221648092" to="23648490"/>
    <trip id="veh176" type="veh_passenger" depart="748.87" departLane="best" departSpeed="max" from="51574172" to="48393713"/>
    <trip id="veh177" type="veh_passenger" depart="753.12" departLane="best" departSpeed="max" from="221648092" to="-136778240#4"/>
    <trip id="veh182" type="veh_passenger" depart="774.40" departLane="best" departSpeed="max" from="221651080" to="-21619581#0"/>
    <trip id="veh183" type="veh_passenger" depart="778.65" departLane="best" departSpeed="max" from="21619598#0" to="451111999#2"/>
    <trip id="veh184" type="veh_passenger" depart="782.91" departLane="best" departSpeed="max" from="221648092" to="-509521738"/>
    <trip id="veh185" type="veh_passenger" depart="787.16" departLane="best" from="23054583#1" to="-46930593"/>
    <trip id="veh186" type="veh_passenger" depart="791.42" departLane="best" departSpeed="max" from="451111999#0" to="-21619581#0"/>
    <trip id="veh187" type="veh_passenger" depart="795.67" departLane="best" departSpeed="max" from="221648092" to="242365079#0"/>
    <trip id="veh188" type="veh_passenger" depart="799.93" departLane="best" departSpeed="max" from="-136778240#6" to="39354097#4"/>
    <trip id="veh189" type="veh_passenger" depart="804.18" departLane="best" departSpeed="max" from="-625454232" to="221648093#4"/>
    <trip id="veh190" type="veh_passenger" depart="808.44" departLane="best" departSpeed="max" from="130504335#0" to="21619577#3"/>
    <trip id="veh193" type="veh_passenger" depart="821.20" departLane="best" departSpeed="max" from="20280393" to="-23054590"/>
    <trip id="veh194" type="veh_passenger" depart="825.46" departLane="best" departSpeed="max" from="-136778240#6" to="23648490"/>
    <trip id="veh195" type="veh_passenger" depart="829.71" departLane="best" from="93248674#2" to="21619588#0"/>
    <trip id="veh196" type="veh_passenger" depart="833.97" departLane="best" departSpeed="max" from="625454227" to="136778240#6"/>
    <trip id="veh197" type="veh_passenger" depart="838.22" departLane="best" departSpeed="max" from="-136778240#6" to="-509521738"/>
    <trip id="veh198" type="veh_passenger" depart="842.48" departLane="best" departSpeed="max" from="39910453" to="18908030"/>
    <trip id="veh199" type="veh_passenger" depart="846.73" departLane="best" departSpeed="max" from="-625454232" to="26539416#1"/>
    <trip id="veh202" type="veh_passenger" depart="859.50" departLane="best" departSpeed="max" from="-487890818" to="-21619581#0"/>
    <trip id="veh203" type="veh_passenger" depart="863.75" departLane="best" from="21619592#1" to="451111999#1"/>
    <trip id="veh204" type="veh_passenger" depart="868.01" departLane="best" from="633723098" to="221567773"/>
    <trip id="veh205" type="veh_passenger" depart="872.26" departLane="best" from="47034893#1" to="-22278550#4"/>
    <trip id="veh207" type="veh_passenger" depart="880.77" departLane="best" departSpeed="max" from="-487890818" to="633723106#0"/>
    <trip id="veh210" type="veh_passenger" depart="893.53" departLane="best" from="39354097#1" to="21619577#3"/>
    <trip id="veh212" type="veh_passenger" depart="902.04" departLane="best" departSpeed="max" from="451111999#0" to="509537336#2"/>
    <trip id="veh213" type="veh_passenger" depart="906.30" departLane="best" from="47034520#1" to="221648093#4"/>
    <trip id="veh219" type="veh_passenger" depart="931.83" departLane="best" from="22699958#1" to="26539416#1"/>
    <trip id="veh222" type="veh_passenger" depart="944.59" departLane="best" departSpeed="max" from="-136778240#6" to="625454232"/>
    <trip id="veh224" type="veh_passenger" depart="953.10" departLane="best" departSpeed="max" from="46930593" to="39354097#5"/>
    <trip id="veh227" type="veh_passenger" depart="965.87" departLane="best" departSpeed="max" from="46930593" to="20280385#2"/>
    <trip id="veh232" type="veh_passenger" depart="987.14" departLane="best" departSpeed="max" from="20280393" to="-46930593"/>
    <trip id="veh233" type="veh_passenger" depart="991.40" departLane="best" departSpeed="max" from="130504335#0" to="-46930593"/>
    <trip id="veh235" type="veh_passenger" depart="999.91" departLane="best" departSpeed="max" from="93248674#0" to="23054586"/>
    <trip id="veh236" type="veh_passenger" depart="1004.16" departLane="best" departSpeed="max" from="21619581#0" to="-463966362"/>
    <trip id="veh238" type="veh_passenger" depart="1012.67" departLane="best" departSpeed="max" from="-625454232" to="-21619581#0"/>
    <trip id="veh239" type="veh_passenger" depart="1016.93" departLane="best" departSpeed="max" from="39910453" to="18908030"/>
    <trip id="veh240" type="veh_passenger" depart="1021.18" departLane="best" from="47034518#0" to="-46930593"/>
    <trip id="veh243" type="veh_passenger" depart="1033.95" departLane="best" from="23054583#1" to="221648093#4"/>
    <trip id="veh244" type="veh_passenger" depart="1038.20" departLane="best" departSpeed="max" from="-625454232" to="-21619598#0"/>
    <trip id="veh245" type="veh_passenger" depart="1042.46" departLane="best" departSpeed="max" from="625454227" to="22278550#3"/>
    <trip id="veh248" type="veh_passenger" depart="1055.22" departLane="best" departSpeed="max" from="93248674#0" to="-46930593"/>
    <trip id="veh250" type="veh_passenger" depart="1063.73" departLane="best" departSpeed="max" from="93248674#0" to="20280385#2"/>
    <trip id="veh251" type="veh_passenger" depart="1067.99" departLane="best" departSpeed="max" from="451111999#0" to="26539416#1"/>
    <trip id="veh254" type="veh_passenger" depart="1080.75" departLane="best" departSpeed="max" from="463966362" to="-509521738"/>
    <trip id="veh255" type="veh_passenger" depart="1085.01" departLane="best" departSpeed="max" from="-625454232" to="-22278550#3"/>
    <trip id="veh256" type="veh_passenger" depart="1089.26" departLane="best" from="-136778240#2" to="221648093#4"/>
    <trip id="veh258" type="veh_passenger" depart="1097.77" departLane="best" from="47034519#2" to="221648093#4"/>
    <trip id="veh259" type="veh_passenger" depart="1102.03" departLane="best" departSpeed="max" from="46930593" to="625454232"/>
    <trip id="veh261" type="veh_passenger" depart="1110.54" departLane="best" departSpeed="max" from="463966362" to="625454232"/>
    <trip id="veh262" type="veh_passenger" depart="1114.79" departLane="best" from="221648093#2" to="23648490"/>
    <trip id="veh263" type="veh_passenger" depart="1119.05" departLane="best" departSpeed="max" from="463966362" to="531339539"/>
    <trip id="veh265" type="veh_passenger" depart="1127.56" departLane="best" departSpeed="max" from="21619581#0" to="-46930593"/>
    <trip id="veh266" type="veh_passenger" depart="1131.81" departLane="best" departSpeed="max" from="46930593" to="47034893#0"/>
    <trip id="veh267" type="veh_passenger" depart="1136.07" departLane="best" departSpeed="max" from="625454227" to="22278551#2"/>
    <trip id="veh268" type="veh_passenger" depart="1140.32" departLane="best" from="-21619595#1" to="221648093#4"/>
    <trip id="veh270" type="veh_passenger" depart="1148.83" departLane="best" departSpeed="max" from="-22278551#2" to="625454232"/>
    <trip id="veh274" type="veh_passenger" depart="1165.85" departLane="best" from="23054585#0" to="39354097#5"/>
    <trip id="veh275" type="veh_passenger" depart="1170.10" departLane="best" departSpeed="max" from="21619598#0" to="21619577#3"/>
    <trip id="veh277" type="veh_passenger" depart="1178.61" departLane="best" departSpeed="max" from="21619598#0" to="47034520#1"/>
    <trip id="veh278" type="veh_passenger" depart="1182.87" departLane="best" departSpeed="max" from="21619581#0" to="625454232"/>
    <trip id="veh279" type="veh_passenger" depart="1187.12" departLane="best" from="22278550#4" to="21619569#2"/>
    <trip id="veh280" type="veh_passenger" depart="1191.38" departLane="best" departSpeed="max" from="21619598#0" to="625454232"/>
    <trip id="veh281" type="veh_passenger" depart="1195.63" departLane="best" departSpeed="max" from="221648092" to="22699958#1"/>
    <trip id="veh282" type="veh_passenger" depart="1199.89" departLane="best" departSpeed="max" from="93248674#0" to="39354097#5"/>
    <trip id="veh287" type="veh_passenger" depart="1221.16" departLane="best" departSpeed="max" from="221651080" to="47034520#1"/>
    <trip id="veh288" type="veh_passenger" depart="1225.42" departLane="best" departSpeed="max" from="-487890818" to="625454232"/>
    <trip id="veh289" type="veh_passenger" depart="1229.67" departLane="best" departSpeed="max" from="39910453" to="18908030"/>
    <trip id="veh290" type="veh_passenger" depart="1233.93" departLane="best" departSpeed="max" from="-625454232" to="23648490"/>
    <trip id="veh291" type="veh_passenger" depart="1238.18" departLane="best" departSpeed="max" from="93248674#0" to="531339542"/>
    <trip id="veh292" type="veh_passenger" depart="1242.44" departLane="best" from="22699958#0" to="-46930593"/>
    <trip id="veh294" type="veh_passenger" depart="1250.95" departLane="best" from="47034894#0" to="22278551#2"/>
    <trip id="veh295" type="veh_passenger" depart="1255.20" departLane="best" from="21619569#2" to="509537336#2"/>
    <trip id="veh297" type="veh_passenger" depart="1263.71" departLane="best" from="531339545#1" to="22278551#2"/>
    <trip id="veh299" type="veh_passenger" depart="1272.22" departLane="best" departSpeed="max" from="221648092" to="625454232"/>
    <trip id="veh300" type="veh_passenger" depart="1276.48" departLane="best" from="39354097#3" to="509537336#0"/>
    <trip id="veh301" type="veh_passenger" depart="1280.73" departLane="best" departSpeed="max" from="21619581#0" to="19788542#1"/>
    <trip id="veh306" type="veh_passenger" depart="1302.01" departLane="best" from="22278550#4" to="21619577#3"/>
    <trip id="veh307" type="veh_passenger" depart="1306.26" departLane="best" departSpeed="max" from="39910453" to="18908030"/>
    <trip id="veh309" type="veh_passenger" depart="1314.77" departLane="best" departSpeed="max" from="51574170" to="48393713"/>
    <trip id="veh311" type="veh_passenger" depart="1323.28" departLane="best" departSpeed="max" from="463966362" to="509537336#0"/>
    <trip id="veh312" type="veh_passenger" depart="1327.54" departLane="best" departSpeed="max" from="93248674#0" to="22278551#2"/>
    <trip id="veh313" type="veh_passenger" depart="1331.79" departLane="best" from="-21619581#2" to="22278551#2"/>
    <trip id="veh314" type="veh_passenger" depart="1336.05" departLane="best" departSpeed="max" from="39910453" to="51574158"/>
    <trip id="veh318" type="veh_passenger" depart="1353.07" departLane="best" departSpeed="max" from="463966362" to="-509521738"/>
    <trip id="veh319" type="veh_passenger" depart="1357.32" departLane="best" from="23054583#1" to="625454232"/>
    <trip id="veh320" type="veh_passenger" depart="1361.58" departLane="best" departSpeed="max" from="21619598#0" to="47034520#1"/>
    <trip id="veh322" type="veh_passenger" depart="1370.09" departLane="best" departSpeed="max" from="221648092" to="21619577#1"/>
    <trip id="veh323" type="veh_passenger" depart="1374.34" departLane="best" from="48393713-AddedOnRampEdge" to="48393713"/>
    <trip id="veh327" type="veh_passenger" depart="1391.36" departLane="best" departSpeed="max" from="-22278551#2" to="39354096#0"/>
    <trip id="veh331" type="veh_passenger" depart="1408.38" departLane="best" departSpeed="max" from="21619581#0" to="21619598#3"/>
    <trip id="veh332" type="veh_passenger" depart="1412.64" departLane="best" departSpeed="max" from="-625454232" to="23054587#2"/>
    <trip id="veh333" type="veh_passenger" depart="1416.89" departLane="best" departSpeed="max" from="-625454232" to="-22278551#1"/>
    <trip id="veh334" type="veh_passenger" depart="1421.15" departLane="best" from="20280385#2" to="531339542"/>
    <trip id="veh335" type="veh_passenger" depart="1425.40" departLane="best" departSpeed="max" from="-625454232" to="221648093#4"/>
    <trip id="veh338" type="veh_passenger" depart="1438.17" departLane="best" departSpeed="max" from="531339540#0" to="451111999#1"/>
    <trip id="veh339" type="veh_passenger" depart="1442.42" departLane="best" departSpeed="max" from="-625454232" to="221648093#4"/>
    <trip id="veh340" type="veh_passenger" depart="1446.68" departLane="best" departSpeed="max" from="21619598#0" to="242365079#3"/>
    <trip id="veh341" type="veh_passenger" depart="1450.93" departLane="best" departSpeed="max" from="451111999#0" to="221648093#3"/>
    <trip id="veh342" type="veh_passenger" depart="1455.18" departLane="best" departSpeed="max" from="20280393" to="509537336#2"/>
    <trip id="veh343" type="veh_passenger" depart="1459.44" departLane="best" departSpeed="max" from="130504335#0" to="21619598#3"/>
    <trip id="veh346" type="veh_passenger" depart="1472.20" departLane="best" departSpeed="max" from="93248674#0" to="19788542#0"/>
    <trip id="veh347" type="veh_passenger" depart="1476.46" departLane="best" departSpeed="max" from="93248674#0" to="39354097#5"/>
    <trip id="veh349" type="veh_passenger" depart="1484.97" departLane="best" departSpeed="max" from="-21619598#3" to="26539416#1"/>
    <trip id="veh350" type="veh_passenger" depart="1489.22" departLane="best" from="325213134" to="51574893"/>
    <trip id="veh353" type="veh_passenger" depart="1501.99" departLane="best" departSpeed="max" from="451111999#0" to="26539416#1"/>
    <trip id="veh355" type="veh_passenger" depart="1510.50" departLane="best" departSpeed="max" from="463966362" to="509537336#2"/>
    <trip id="veh357" type="veh_passenger" depart="1519.01" departLane="best" departSpeed="max" from="221651080" to="242365079#3"/>
    <trip id="veh360" type="veh_passenger" depart="1531.77" departLane="best" departSpeed="max" from="-625454232" to="-46930593"/>
    <trip id="veh364" type="veh_passenger" depart="1548.79" departLane="best" departSpeed="max" from="51574170" to="48393713"/>
    <trip id="veh365" type="veh_passenger" depart="1553.05" departLane="best" departSpeed="max" from="21619598#0" to="-46930593"/>
    <trip id="veh369" type="veh_passenger" depart="1570.07" departLane="best" departSpeed="max" from="-136778240#6" to="23054590"/>
    <trip id="veh370" type="veh_passenger" depart="1574.32" departLane="best" from="22278550#4" to="448723602"/>
    <trip id="veh371" type="veh_passenger" depart="1578.58" departLane="best" departSpeed="max" from="46930593" to="242365079#3"/>
    <trip id="veh374" type="veh_passenger" depart="1591.34" departLane="best" from="136778240#3" to="-21619598#0"/>
    <trip id="veh377" type="veh_passenger" depart="1604.11" departLane="best" departSpeed="max" from="-625454232" to="221648093#4"/>
    <trip id="veh378" type="veh_passenger" depart="1608.36" departLane="best" departSpeed="max" from="625454227" to="221648093#1"/>
    <trip id="veh379" type="veh_passenger" depart="1612.62" departLane="best" departSpeed="max" from="221648092" to="-463966362"/>
    <trip id="veh381" type="veh_passenger" depart="1621.13" departLane="best" from="625454230" to="-21619581#0"/>
    <trip id="veh383" type="veh_passenger" depart="1629.64" departLane="best" departSpeed="max" from="-22278551#2" to="47034519#1"/>
    <trip id="veh385" type="veh_passenger" depart="1638.15" departLane="best" from="221577839#1" to="221577836#0"/>
    <trip id="veh386" type="veh_passenger" depart="1642.40" departLane="best" from="-633723106#2" to="-46930593"/>
    <trip id="veh388" type="veh_passenger" depart="1650.91" departLane="best" departSpeed="max" from="463966362" to="39354097#4"/>
    <trip id="veh390" type="veh_passenger" depart="1659.42" departLane="best" departSpeed="max" from="-487890818" to="242365079#0"/>
    <trip id="veh396" type="veh_passenger" depart="1684.95" departLane="best" departSpeed="max" from="-625454232" to="-46930593"/>
    <trip id="veh397" type="veh_passenger" depart="1689.21" departLane="best" departSpeed="max" from="463966362" to="-21619581#0"/>
    <trip id="veh399" type="veh_passenger" depart="1697.72" departLane="best" from="20280385#1" to="21619577#3"/>
    <trip id="veh400" type="veh_passenger" depart="1701.97" departLane="best" departSpeed="max" from="-625454232" to="-21619598#0"/>
    <trip id="veh404" type="veh_passenger" depart="1718.99" departLane="best" departSpeed="max" from="-487890818" to="22278551#2"/>
    <trip id="veh405" type="veh_passenger" depart="1723.25" departLane="best" departSpeed="max" from="625454227" to="-21619595#2"/>
    <trip id="veh407" type="veh_passenger" depart="1731.76" departLane="best" departSpeed="max" from="46930593" to="22278551#2"/>
    <trip id="veh408" type="veh_passenger" depart="1736.01" departLane="best" departSpeed="max" from="531339540#0" to="-221567773"/>