<?xml version="1.0" encoding="UTF-8"?>

<!-- generated on Sun Aug 23 16:38:49 2020 by Eclipse SUMO netconvert Version 1.6.0
<configuration xmlns:xsi="http://www.w3.org/2001/XMLSchema-instance" xsi:noNamespaceSchemaLocation="http://sumo.dlr.de/xsd/netconvertConfiguration.xsd">

    <input>
        <type-files value="/usr/share/sumo/data/typemap/osmNetconvert.typ.xml"/>
        <osm-files value="osm_bbox.osm.xml"/>
    </input>

    <output>
        <output-file value="osm.net.xml"/>
        <output.street-names value="true"/>
        <output.original-names value="true"/>
    </output>

    <projection>
        <proj.utm value="true"/>
    </projection>

    <processing>
        <geometry.remove value="true"/>
        <roundabouts.guess value="true"/>
    </processing>

    <tls_building>
        <tls.discard-simple value="true"/>
        <tls.join value="true"/>
        <tls.guess-signals value="true"/>
        <tls.default-type value="actuated"/>
    </tls_building>

    <ramp_guessing>
        <ramps.guess value="true"/>
    </ramp_guessing>

    <junctions>
        <junctions.join value="true"/>
        <junctions.corner-detail value="5"/>
    </junctions>

    <report>
        <verbose value="true"/>
        <aggregate-warnings value="5"/>
    </report>

</configuration>
-->

<net version="1.6" junctionCornerDetail="5" limitTurnSpeed="5.50" xmlns:xsi="http://www.w3.org/2001/XMLSchema-instance" xsi:noNamespaceSchemaLocation="http://sumo.dlr.de/xsd/net_file.xsd">

    <location netOffset="-365532.56,3836927.70" convBoundary="0.00,0.00,6667.88,4683.87" origBoundary="-58.467137,-34.665694,-58.394123,-34.624116" projParameter="+proj=utm +zone=21 +ellps=WGS84 +datum=WGS84 +units=m +no_defs"/>

    <type id="highway.bridleway" priority="1" numLanes="1" speed="2.78" allow="pedestrian" oneway="1" width="2.00"/>
    <type id="highway.bus_guideway" priority="1" numLanes="1" speed="27.78" allow="bus" oneway="1"/>
    <type id="highway.cycleway" priority="1" numLanes="1" speed="8.33" allow="bicycle" oneway="0" width="1.00"/>
    <type id="highway.footway" priority="1" numLanes="1" speed="2.78" allow="pedestrian" oneway="1" width="2.00"/>
    <type id="highway.ford" priority="1" numLanes="1" speed="2.78" allow="army" oneway="0"/>
    <type id="highway.living_street" priority="2" numLanes="1" speed="2.78" disallow="tram rail_urban rail rail_electric rail_fast ship" oneway="0"/>
    <type id="highway.motorway" priority="14" numLanes="2" speed="39.44" allow="private emergency authority army vip passenger hov taxi bus coach delivery truck trailer motorcycle evehicle custom1 custom2" oneway="1"/>
    <type id="highway.motorway_link" priority="9" numLanes="1" speed="22.22" allow="private emergency authority army vip passenger hov taxi bus coach delivery truck trailer motorcycle evehicle custom1 custom2" oneway="1"/>
    <type id="highway.path" priority="1" numLanes="1" speed="2.78" allow="pedestrian bicycle" oneway="1" width="2.00"/>
    <type id="highway.pedestrian" priority="1" numLanes="1" speed="2.78" allow="pedestrian" oneway="1" width="2.00"/>
    <type id="highway.primary" priority="12" numLanes="2" speed="27.78" disallow="tram rail_urban rail rail_electric rail_fast ship" oneway="0"/>
    <type id="highway.primary_link" priority="7" numLanes="1" speed="22.22" disallow="tram rail_urban rail rail_electric rail_fast ship" oneway="0"/>
    <type id="highway.raceway" priority="15" numLanes="2" speed="83.33" allow="vip" oneway="0"/>
    <type id="highway.residential" priority="3" numLanes="1" speed="13.89" disallow="tram rail_urban rail rail_electric rail_fast ship" oneway="0"/>
    <type id="highway.secondary" priority="11" numLanes="1" speed="27.78" disallow="tram rail_urban rail rail_electric rail_fast ship" oneway="0"/>
    <type id="highway.secondary_link" priority="6" numLanes="1" speed="22.22" disallow="tram rail_urban rail rail_electric rail_fast ship" oneway="0"/>
    <type id="highway.service" priority="1" numLanes="1" speed="5.56" allow="pedestrian delivery bicycle" oneway="0"/>
    <type id="highway.stairs" priority="1" numLanes="1" speed="1.39" allow="pedestrian" oneway="1" width="2.00"/>
    <type id="highway.step" priority="1" numLanes="1" speed="1.39" allow="pedestrian" oneway="1" width="2.00"/>
    <type id="highway.steps" priority="1" numLanes="1" speed="1.39" allow="pedestrian" oneway="1" width="2.00"/>
    <type id="highway.tertiary" priority="10" numLanes="1" speed="22.22" disallow="tram rail_urban rail rail_electric rail_fast ship" oneway="0"/>
    <type id="highway.tertiary_link" priority="5" numLanes="1" speed="22.22" disallow="tram rail_urban rail rail_electric rail_fast ship" oneway="0"/>
    <type id="highway.track" priority="1" numLanes="1" speed="5.56" disallow="tram rail_urban rail rail_electric rail_fast ship" oneway="0"/>
    <type id="highway.trunk" priority="13" numLanes="2" speed="27.78" disallow="pedestrian bicycle tram rail_urban rail rail_electric rail_fast ship" oneway="0"/>
    <type id="highway.trunk_link" priority="8" numLanes="1" speed="22.22" disallow="pedestrian bicycle tram rail_urban rail rail_electric rail_fast ship" oneway="0"/>
    <type id="highway.unclassified" priority="4" numLanes="1" speed="13.89" disallow="tram rail_urban rail rail_electric rail_fast ship" oneway="0"/>
    <type id="highway.unsurfaced" priority="1" numLanes="1" speed="8.33" disallow="tram rail_urban rail rail_electric rail_fast ship" oneway="0"/>
    <type id="railway.highspeed" priority="21" numLanes="1" speed="69.44" allow="rail_fast" oneway="1"/>
    <type id="railway.light_rail" priority="19" numLanes="1" speed="27.78" allow="rail_urban" oneway="1"/>
    <type id="railway.preserved" priority="16" numLanes="1" speed="27.78" allow="rail" oneway="1"/>
    <type id="railway.rail" priority="20" numLanes="1" speed="44.44" allow="rail" oneway="1"/>
    <type id="railway.subway" priority="18" numLanes="1" speed="27.78" allow="rail_urban" oneway="1"/>
    <type id="railway.tram" priority="17" numLanes="1" speed="13.89" allow="tram" oneway="1"/>

    <edge id=":195626778_0" function="internal">
        <lane id=":195626778_0_0" index="0" allow="private emergency authority army vip passenger hov taxi bus coach delivery truck trailer motorcycle evehicle custom1 custom2" speed="25.00" length="0.67" shape="332.34,1966.94 332.50,1967.22 332.61,1967.42 332.70,1967.63 332.82,1967.94"/>
        <lane id=":195626778_0_1" index="1" allow="private emergency authority army vip passenger hov taxi bus coach delivery truck trailer motorcycle evehicle custom1 custom2" speed="25.00" length="0.67" shape="329.56,1968.51 329.65,1968.69 329.72,1968.81 329.77,1968.93 329.84,1969.11"/>
        <lane id=":195626778_0_2" index="2" allow="private emergency authority army vip passenger hov taxi bus coach delivery truck trailer motorcycle evehicle custom1 custom2" speed="25.00" length="0.67" shape="326.77,1970.09 326.81,1970.15 326.83,1970.19 326.84,1970.23 326.87,1970.29"/>
    </edge>
    <edge id=":215028291_0" function="internal">
        <lane id=":215028291_0_0" index="0" disallow="tram rail_urban rail rail_electric rail_fast ship" speed="3.65" length="4.67" shape="1425.55,2200.05 1426.40,2201.21 1426.51,2202.10 1425.86,2202.71 1424.46,2203.06"/>
    </edge>
    <edge id=":2153273020_0" function="internal">
        <lane id=":2153273020_0_0" index="0" allow="private emergency authority army vip passenger hov taxi bus coach delivery truck trailer motorcycle evehicle custom1 custom2" speed="22.22" length="8.49" shape="466.67,2448.21 465.24,2446.05 463.64,2444.96 462.09,2443.85 460.83,2441.63"/>
        <lane id=":2153273020_0_1" index="1" allow="private emergency authority army vip passenger hov taxi bus coach delivery truck trailer motorcycle evehicle custom1 custom2" speed="22.22" length="8.49" shape="466.67,2448.21 463.87,2440.63"/>
        <lane id=":2153273020_0_2" index="2" allow="private emergency authority army vip passenger hov taxi bus coach delivery truck trailer motorcycle evehicle custom1 custom2" speed="22.22" length="8.49" shape="466.67,2448.21 466.21,2445.77 466.68,2443.96 467.21,2442.13 466.91,2439.63"/>
        <lane id=":2153273020_0_3" index="3" allow="private emergency authority army vip passenger hov taxi bus coach delivery truck trailer motorcycle evehicle custom1 custom2" speed="22.22" length="8.49" shape="469.63,2446.99 469.19,2444.61 469.68,2442.85 470.23,2441.07 469.95,2438.63"/>
        <lane id=":2153273020_0_4" index="4" allow="private emergency authority army vip passenger hov taxi bus coach delivery truck trailer motorcycle evehicle custom1 custom2" speed="22.22" length="8.49" shape="472.59,2445.77 472.18,2443.45 472.68,2441.74 473.24,2440.00 472.99,2437.63"/>
        <lane id=":2153273020_0_5" index="5" allow="private emergency authority army vip passenger hov taxi bus coach delivery truck trailer motorcycle evehicle custom1 custom2" speed="22.22" length="8.49" shape="475.55,2444.56 475.16,2442.30 475.69,2440.63 476.26,2438.94 476.03,2436.63"/>
    </edge>
    <edge id=":2153273026_0" function="internal">
        <lane id=":2153273026_0_0" index="0" allow="tram" speed="13.89" length="2.78" shape="541.10,2421.71 542.46,2419.29"/>
    </edge>
    <edge id=":2153273026_1" function="internal">
        <lane id=":2153273026_1_0" index="0" allow="tram" speed="13.89" length="2.76" shape="541.29,2421.79 541.59,2421.02 541.81,2420.51 542.06,2420.00 542.46,2419.29"/>
    </edge>
    <edge id=":2153273048_0" function="internal">
        <lane id=":2153273048_0_0" index="0" allow="tram" speed="13.89" length="2.53" shape="531.45,2448.46 530.21,2450.67"/>
    </edge>
    <edge id=":2153273050_0" function="internal">
        <lane id=":2153273050_0_0" index="0" allow="tram" speed="13.89" length="3.05" shape="526.53,2447.60 528.05,2444.95"/>
    </edge>
    <edge id=":2153273050_1" function="internal">
        <lane id=":2153273050_1_0" index="0" allow="tram" speed="13.89" length="3.06" shape="526.53,2447.60 527.00,2446.82 527.34,2446.30 527.71,2445.80 528.27,2445.08"/>
    </edge>
    <edge id=":2153278571_0" function="internal">
        <lane id=":2153278571_0_0" index="0" disallow="tram rail_urban rail rail_electric rail_fast ship" speed="16.67" length="14.10" shape="487.67,2369.72 490.21,2366.86 491.64,2361.16 493.93,2355.83 499.03,2354.09"/>
        <lane id=":2153278571_0_1" index="1" disallow="tram rail_urban rail rail_electric rail_fast ship" speed="16.67" length="14.10" shape="487.67,2369.72 490.32,2367.38 491.90,2362.82 494.09,2358.59 498.53,2357.25"/>
        <lane id=":2153278571_0_2" index="2" disallow="tram rail_urban rail rail_electric rail_fast ship" speed="16.67" length="14.10" shape="487.67,2369.72 490.42,2367.90 492.14,2364.47 494.21,2361.34 498.03,2360.42"/>
        <lane id=":2153278571_0_3" index="3" disallow="tram rail_urban rail rail_electric rail_fast ship" speed="16.67" length="14.10" shape="487.67,2369.72 490.51,2368.42 492.32,2366.12 494.27,2364.09 497.53,2363.58"/>
        <lane id=":2153278571_0_4" index="4" disallow="tram rail_urban rail rail_electric rail_fast ship" speed="16.67" length="14.10" shape="487.67,2369.72 490.52,2368.94 492.37,2367.76 494.21,2366.81 497.04,2366.74"/>
        <lane id=":2153278571_0_5" index="5" disallow="tram rail_urban rail rail_electric rail_fast ship" speed="16.67" length="14.10" shape="487.67,2369.72 490.30,2369.47 492.12,2369.39 493.93,2369.52 496.54,2369.90"/>
    </edge>
    <edge id=":2153278622_0" function="internal">
        <lane id=":2153278622_0_0" index="0" disallow="tram rail_urban rail rail_electric rail_fast ship" speed="11.11" length="5.09" shape="949.10,2133.19 952.46,2129.37"/>
    </edge>
    <edge id=":2153278703_0" function="internal">
        <lane id=":2153278703_0_0" index="0" allow="pedestrian delivery bicycle" speed="5.24" length="5.23" shape="992.90,2078.65 994.18,2079.44 995.38,2079.69 996.50,2079.39 997.55,2078.56"/>
    </edge>
    <edge id=":2153278703_1" function="internal">
        <lane id=":2153278703_1_0" index="0" allow="pedestrian delivery bicycle" speed="3.65" length="4.67" shape="992.90,2078.65 993.33,2080.03 993.14,2080.90 992.32,2081.27 990.89,2081.14"/>
    </edge>
    <edge id=":2153278703_2" function="internal">
        <lane id=":2153278703_2_0" index="0" allow="pedestrian delivery bicycle" speed="4.98" length="5.07" shape="991.23,2085.51 992.01,2084.35 992.21,2083.23 991.84,2082.16 990.89,2081.14"/>
    </edge>
    <edge id=":2153278703_3" function="internal">
        <lane id=":2153278703_3_0" index="0" disallow="tram rail_urban rail rail_electric rail_fast ship" speed="11.11" length="9.40" shape="991.23,2085.51 997.55,2078.56"/>
    </edge>
    <edge id=":2153291224_0" function="internal">
        <lane id=":2153291224_0_0" index="0" allow="pedestrian delivery bicycle" speed="3.65" length="4.67" shape="1143.11,1926.12 1144.53,1925.86 1145.37,1926.15 1145.64,1927.01 1145.33,1928.42"/>
    </edge>
    <edge id=":2153294920_0" function="internal">
        <lane id=":2153294920_0_0" index="0" allow="pedestrian delivery bicycle" speed="3.65" length="4.67" shape="1054.39,2016.44 1052.97,2016.70 1052.13,2016.41 1051.86,2015.55 1052.16,2014.14"/>
    </edge>
    <edge id=":2153299091_0" function="internal">
        <lane id=":2153299091_0_0" index="0" allow="pedestrian delivery bicycle" speed="5.56" length="5.00" shape="1140.64,1932.96 1137.05,1936.44"/>
    </edge>
    <edge id=":2153299091_1" function="internal">
        <lane id=":2153299091_1_0" index="0" allow="pedestrian delivery bicycle" speed="3.65" length="2.34" shape="1140.64,1932.96 1139.22,1933.22 1138.38,1932.93"/>
    </edge>
    <edge id=":2153299091_4" function="internal">
        <lane id=":2153299091_4_0" index="0" allow="pedestrian delivery bicycle" speed="3.65" length="2.34" shape="1138.38,1932.93 1138.11,1932.07 1138.41,1930.66"/>
    </edge>
    <edge id=":2153299091_2" function="internal">
        <lane id=":2153299091_2_0" index="0" allow="pedestrian delivery bicycle" speed="5.56" length="5.00" shape="1134.82,1934.14 1138.41,1930.66"/>
    </edge>
    <edge id=":2153299091_3" function="internal">
        <lane id=":2153299091_3_0" index="0" allow="pedestrian delivery bicycle" speed="3.65" length="2.34" shape="1134.82,1934.14 1136.24,1933.88 1137.08,1934.18"/>
    </edge>
    <edge id=":2153299091_5" function="internal">
        <lane id=":2153299091_5_0" index="0" allow="pedestrian delivery bicycle" speed="3.65" length="2.34" shape="1137.08,1934.18 1137.35,1935.03 1137.05,1936.44"/>
    </edge>
    <edge id=":2153333758_0" function="internal">
        <lane id=":2153333758_0_0" index="0" allow="pedestrian delivery bicycle" speed="3.65" length="4.67" shape="951.54,2049.29 951.11,2047.91 951.30,2047.04 952.11,2046.67 953.55,2046.80"/>
    </edge>
    <edge id=":2153333761_0" function="internal">
        <lane id=":2153333761_0_0" index="0" disallow="tram rail_urban rail rail_electric rail_fast ship" speed="16.67" length="5.00" shape="858.70,2048.62 855.41,2052.40"/>
    </edge>
    <edge id=":218308998_0" function="internal">
        <lane id=":218308998_0_0" index="0" disallow="tram rail_urban rail rail_electric rail_fast ship" speed="6.51" length="9.09" shape="342.61,1855.23 341.02,1857.16 340.43,1859.13 340.85,1861.13 342.26,1863.18"/>
    </edge>
    <edge id=":218308998_1" function="internal">
        <lane id=":218308998_1_0" index="0" disallow="tram rail_urban rail rail_electric rail_fast ship" speed="11.11" length="11.29" shape="342.61,1855.23 334.37,1862.94"/>
    </edge>
    <edge id=":218308998_2" function="internal">
        <lane id=":218308998_2_0" index="0" disallow="tram rail_urban rail rail_electric rail_fast ship" speed="3.65" length="2.34" shape="342.61,1855.23 341.19,1855.45 340.35,1855.13"/>
    </edge>
    <edge id=":218308998_8" function="internal">
        <lane id=":218308998_8_0" index="0" disallow="tram rail_urban rail rail_electric rail_fast ship" speed="3.65" length="2.34" shape="340.35,1855.13 340.11,1854.27 340.45,1852.87"/>
    </edge>
    <edge id=":218308998_3" function="internal">
        <lane id=":218308998_3_0" index="0" disallow="tram rail_urban rail rail_electric rail_fast ship" speed="6.46" length="9.03" shape="332.58,1852.43 334.47,1854.05 336.40,1854.66 338.40,1854.27 340.45,1852.87"/>
    </edge>
    <edge id=":218308998_4" function="internal">
        <lane id=":218308998_4_0" index="0" disallow="tram rail_urban rail rail_electric rail_fast ship" speed="11.11" length="14.46" shape="332.58,1852.43 342.26,1863.18"/>
    </edge>
    <edge id=":218308998_5" function="internal">
        <lane id=":218308998_5_0" index="0" disallow="tram rail_urban rail rail_electric rail_fast ship" speed="7.49" length="11.88" shape="332.58,1852.43 334.88,1855.58 335.94,1858.38 335.77,1860.84 334.37,1862.94"/>
    </edge>
    <edge id=":218308998_6" function="internal">
        <lane id=":218308998_6_0" index="0" disallow="tram rail_urban rail rail_electric rail_fast ship" speed="11.11" length="11.35" shape="332.16,1860.62 340.45,1852.87"/>
    </edge>
    <edge id=":218308998_7" function="internal">
        <lane id=":218308998_7_0" index="0" disallow="tram rail_urban rail rail_electric rail_fast ship" speed="3.65" length="2.34" shape="332.16,1860.62 333.58,1860.37 334.42,1860.68"/>
    </edge>
    <edge id=":218308998_9" function="internal">
        <lane id=":218308998_9_0" index="0" disallow="tram rail_urban rail rail_electric rail_fast ship" speed="3.65" length="2.34" shape="334.42,1860.68 334.68,1861.53 334.37,1862.94"/>
    </edge>
    <edge id=":218309038_0" function="internal">
        <lane id=":218309038_0_0" index="0" disallow="tram rail_urban rail rail_electric rail_fast ship" speed="11.11" length="11.07" shape="1086.74,2396.10 1078.55,2388.64"/>
    </edge>
    <edge id=":218309038_1" function="internal">
        <lane id=":218309038_1_0" index="0" disallow="tram rail_urban rail rail_electric rail_fast ship" speed="6.52" length="8.97" shape="1078.93,2396.52 1080.29,2394.47 1080.68,2392.47 1080.10,2390.53 1078.55,2388.64"/>
    </edge>
    <edge id=":218317687_0" function="internal">
        <lane id=":218317687_0_0" index="0" disallow="tram rail_urban rail rail_electric rail_fast ship" speed="6.47" length="9.03" shape="993.60,2484.16 995.65,2485.56 997.65,2485.95 999.59,2485.35 1001.48,2483.75"/>
    </edge>
    <edge id=":218317687_1" function="internal">
        <lane id=":218317687_1_0" index="0" disallow="tram rail_urban rail rail_electric rail_fast ship" speed="11.11" length="11.23" shape="993.60,2484.16 1001.84,2491.79"/>
    </edge>
    <edge id=":218317687_2" function="internal">
        <lane id=":218317687_2_0" index="0" disallow="tram rail_urban rail rail_electric rail_fast ship" speed="11.11" length="11.23" shape="993.93,2492.07 1001.48,2483.75"/>
    </edge>
    <edge id=":218317687_3" function="internal">
        <lane id=":218317687_3_0" index="0" disallow="tram rail_urban rail rail_electric rail_fast ship" speed="6.49" length="9.03" shape="993.93,2492.07 995.86,2490.51 997.82,2489.94 999.81,2490.37 1001.84,2491.79"/>
    </edge>
    <edge id=":232747599_0" function="internal">
        <lane id=":232747599_0_0" index="0" disallow="tram rail_urban rail rail_electric rail_fast ship" speed="7.00" length="9.32" shape="328.09,2493.13 330.36,2494.46 332.52,2494.89 334.58,2494.43 336.54,2493.08"/>
    </edge>
    <edge id=":232747599_1" function="internal">
        <lane id=":232747599_1_0" index="0" disallow="tram rail_urban rail rail_electric rail_fast ship" speed="8.33" length="11.05" shape="328.09,2493.13 336.82,2499.95"/>
        <lane id=":232747599_1_1" index="1" disallow="tram rail_urban rail rail_electric rail_fast ship" speed="8.33" length="11.05" shape="326.15,2495.67 334.83,2502.46"/>
    </edge>
    <edge id=":232747599_3" function="internal">
        <lane id=":232747599_3_0" index="0" disallow="tram rail_urban rail rail_electric rail_fast ship" speed="11.11" length="13.79" shape="326.47,2502.50 336.54,2493.08"/>
    </edge>
    <edge id=":232747599_4" function="internal">
        <lane id=":232747599_4_0" index="0" disallow="tram rail_urban rail rail_electric rail_fast ship" speed="6.95" length="9.25" shape="326.47,2502.50 328.45,2501.15 330.50,2500.69 332.63,2501.12 334.83,2502.46"/>
    </edge>
    <edge id=":232747715_0" function="internal">
        <lane id=":232747715_0_0" index="0" disallow="tram rail_urban rail rail_electric rail_fast ship" speed="11.11" length="9.96" shape="296.07,2070.82 291.23,2062.12"/>
    </edge>
    <edge id=":232747715_1" function="internal">
        <lane id=":232747715_1_0" index="0" disallow="tram rail_urban rail rail_electric rail_fast ship" speed="6.80" length="8.46" shape="289.63,2069.67 291.22,2067.85 292.02,2065.98 292.02,2064.07 291.23,2062.12"/>
    </edge>
    <edge id=":232747906_0" function="internal">
        <lane id=":232747906_0_0" index="0" disallow="tram rail_urban rail rail_electric rail_fast ship" speed="6.11" length="9.06" shape="235.15,2414.55 233.48,2416.48 232.96,2418.38 233.59,2420.25 235.38,2422.08"/>
    </edge>
    <edge id=":232747906_1" function="internal">
        <lane id=":232747906_1_0" index="0" disallow="tram rail_urban rail rail_electric rail_fast ship" speed="6.97" length="12.13" shape="235.15,2414.55 232.43,2417.45 231.24,2420.09 231.57,2422.48 233.44,2424.62"/>
    </edge>
    <edge id=":232747939_0" function="internal">
        <lane id=":232747939_0_0" index="0" disallow="tram rail_urban rail rail_electric rail_fast ship" speed="8.22" length="13.73" shape="371.57,2311.32 367.86,2308.32 364.62,2306.67 361.85,2306.38 359.55,2307.46"/>
    </edge>
    <edge id=":232747939_1" function="internal">
        <lane id=":232747939_1_0" index="0" disallow="tram rail_urban rail rail_electric rail_fast ship" speed="8.48" length="6.13" shape="371.57,2311.32 368.07,2307.22 367.81,2306.53"/>
    </edge>
    <edge id=":232747939_2" function="internal">
        <lane id=":232747939_2_0" index="0" disallow="tram rail_urban rail rail_electric rail_fast ship" speed="3.65" length="2.14" shape="371.57,2311.32 371.24,2309.92 371.44,2309.25"/>
    </edge>
    <edge id=":232747939_9" function="internal">
        <lane id=":232747939_9_0" index="0" disallow="tram rail_urban rail rail_electric rail_fast ship" speed="8.48" length="11.24" shape="367.81,2306.53 366.62,2303.38 367.23,2299.80 369.89,2296.49"/>
    </edge>
    <edge id=":232747939_10" function="internal">
        <lane id=":232747939_10_0" index="0" disallow="tram rail_urban rail rail_electric rail_fast ship" speed="3.65" length="2.53" shape="371.44,2309.25 371.49,2309.06 372.33,2308.75 373.75,2308.99"/>
    </edge>
    <edge id=":232747939_3" function="internal">
        <lane id=":232747939_3_0" index="0" disallow="tram rail_urban rail rail_electric rail_fast ship" speed="7.10" length="11.83" shape="371.98,2298.91 370.34,2301.06 370.09,2303.45 371.22,2306.09 373.75,2308.99"/>
    </edge>
    <edge id=":232747939_4" function="internal">
        <lane id=":232747939_4_0" index="0" disallow="tram rail_urban rail rail_electric rail_fast ship" speed="11.11" length="15.10" shape="371.98,2298.91 368.98,2301.17 365.77,2303.20 362.57,2305.22 359.55,2307.46"/>
    </edge>
    <edge id=":232747939_5" function="internal">
        <lane id=":232747939_5_0" index="0" disallow="tram rail_urban rail rail_electric rail_fast ship" speed="3.65" length="4.67" shape="371.98,2298.91 370.55,2299.09 369.72,2298.75 369.50,2297.88 369.89,2296.49"/>
    </edge>
    <edge id=":232747939_6" function="internal">
        <lane id=":232747939_6_0" index="0" disallow="tram rail_urban rail rail_electric rail_fast ship" speed="7.68" length="11.47" shape="359.59,2298.37 361.77,2299.56 364.21,2299.64 366.92,2298.62 369.89,2296.49"/>
    </edge>
    <edge id=":232747939_7" function="internal">
        <lane id=":232747939_7_0" index="0" disallow="tram rail_urban rail rail_electric rail_fast ship" speed="11.11" length="17.70" shape="359.59,2298.37 373.75,2308.99"/>
    </edge>
    <edge id=":232747939_8" function="internal">
        <lane id=":232747939_8_0" index="0" disallow="tram rail_urban rail rail_electric rail_fast ship" speed="6.69" length="7.32" shape="359.59,2298.37 361.58,2300.64 362.24,2302.91 361.69,2304.76"/>
    </edge>
    <edge id=":232747939_11" function="internal">
        <lane id=":232747939_11_0" index="0" disallow="tram rail_urban rail rail_electric rail_fast ship" speed="6.69" length="3.48" shape="361.69,2304.76 361.56,2305.18 359.55,2307.46"/>
    </edge>
    <edge id=":232748097_0" function="internal">
        <lane id=":232748097_0_0" index="0" disallow="tram rail_urban rail rail_electric rail_fast ship" speed="22.22" length="8.41" shape="349.15,2372.70 346.82,2371.80 344.94,2371.91 343.05,2372.03 340.69,2371.17"/>
        <lane id=":232748097_0_1" index="1" disallow="tram rail_urban rail rail_electric rail_fast ship" speed="22.22" length="8.41" shape="349.15,2372.70 342.36,2368.44"/>
    </edge>
    <edge id=":232748097_2" function="internal">
        <lane id=":232748097_2_0" index="0" disallow="tram rail_urban rail rail_electric rail_fast ship" speed="22.22" length="8.51" shape="345.71,2362.99 347.89,2364.35 349.36,2365.33 350.77,2366.39 352.81,2367.96"/>
        <lane id=":232748097_2_1" index="1" disallow="tram rail_urban rail rail_electric rail_fast ship" speed="22.22" length="8.51" shape="344.03,2365.71 346.13,2367.02 347.54,2367.97 348.90,2368.98 350.86,2370.49"/>
    </edge>
    <edge id=":232748128_0" function="internal">
        <lane id=":232748128_0_0" index="0" disallow="tram rail_urban rail rail_electric rail_fast ship" speed="8.88" length="13.58" shape="316.04,2356.05 312.28,2354.18 308.92,2353.43 305.96,2353.80 303.40,2355.28"/>
    </edge>
    <edge id=":232748128_1" function="internal">
        <lane id=":232748128_1_0" index="0" disallow="tram rail_urban rail rail_electric rail_fast ship" speed="16.67" length="15.54" shape="316.04,2356.05 302.75,2348.04"/>
        <lane id=":232748128_1_1" index="1" disallow="tram rail_urban rail rail_electric rail_fast ship" speed="16.67" length="15.54" shape="317.71,2353.32 304.38,2345.28"/>
    </edge>
    <edge id=":232748128_3" function="internal">
        <lane id=":232748128_3_0" index="0" disallow="tram rail_urban rail rail_electric rail_fast ship" speed="3.65" length="2.34" shape="317.71,2353.32 317.11,2352.01 317.18,2351.12"/>
    </edge>
    <edge id=":232748128_10" function="internal">
        <lane id=":232748128_10_0" index="0" disallow="tram rail_urban rail rail_electric rail_fast ship" speed="3.65" length="2.34" shape="317.18,2351.12 317.94,2350.65 319.38,2350.60"/>
    </edge>
    <edge id=":232748128_4" function="internal">
        <lane id=":232748128_4_0" index="0" disallow="tram rail_urban rail rail_electric rail_fast ship" speed="5.93" length="9.10" shape="320.50,2340.60 318.76,2342.56 318.27,2344.43 319.04,2346.20 321.06,2347.87"/>
    </edge>
    <edge id=":232748128_5" function="internal">
        <lane id=":232748128_5_0" index="0" disallow="tram rail_urban rail rail_electric rail_fast ship" speed="11.11" length="22.53" shape="320.50,2340.60 303.40,2355.28"/>
    </edge>
    <edge id=":232748128_6" function="internal">
        <lane id=":232748128_6_0" index="0" disallow="tram rail_urban rail rail_electric rail_fast ship" speed="10.24" length="17.85" shape="320.50,2340.60 315.79,2344.04 311.53,2345.96 307.73,2346.38 304.38,2345.28"/>
    </edge>
    <edge id=":232748128_7" function="internal">
        <lane id=":232748128_7_0" index="0" disallow="tram rail_urban rail rail_electric rail_fast ship" speed="16.67" length="15.64" shape="307.64,2339.78 321.06,2347.87"/>
        <lane id=":232748128_7_1" index="1" disallow="tram rail_urban rail rail_electric rail_fast ship" speed="16.67" length="15.64" shape="306.01,2342.53 319.38,2350.60"/>
    </edge>
    <edge id=":232748128_9" function="internal">
        <lane id=":232748128_9_0" index="0" disallow="tram rail_urban rail rail_electric rail_fast ship" speed="3.65" length="2.34" shape="306.01,2342.53 306.63,2343.83 306.57,2344.72"/>
    </edge>
    <edge id=":232748128_11" function="internal">
        <lane id=":232748128_11_0" index="0" disallow="tram rail_urban rail rail_electric rail_fast ship" speed="3.65" length="2.34" shape="306.57,2344.72 305.82,2345.21 304.38,2345.28"/>
    </edge>
    <edge id=":232748163_0" function="internal">
        <lane id=":232748163_0_0" index="0" disallow="tram rail_urban rail rail_electric rail_fast ship" speed="3.65" length="4.67" shape="220.54,2295.74 219.91,2294.44 219.98,2293.55 220.73,2293.06 222.17,2292.98"/>
    </edge>
    <edge id=":232748246_0" function="internal">
        <lane id=":232748246_0_0" index="0" disallow="tram rail_urban rail rail_electric rail_fast ship" speed="3.65" length="4.68" shape="476.83,2617.10 475.40,2617.23 474.58,2616.85 474.40,2615.97 474.84,2614.60"/>
    </edge>
    <edge id=":232748669_0" function="internal">
        <lane id=":232748669_0_0" index="0" disallow="tram rail_urban rail rail_electric rail_fast ship" speed="3.65" length="4.67" shape="978.88,1747.11 980.30,1746.88 981.14,1747.19 981.39,1748.05 981.06,1749.45"/>
    </edge>
    <edge id=":232748692_0" function="internal">
        <lane id=":232748692_0_0" index="0" disallow="tram rail_urban rail rail_electric rail_fast ship" speed="8.36" length="15.01" shape="468.47,2219.57 466.16,2215.90 465.42,2212.46 466.26,2209.25 468.66,2206.26"/>
    </edge>
    <edge id=":232748692_1" function="internal">
        <lane id=":232748692_1_0" index="0" disallow="tram rail_urban rail rail_electric rail_fast ship" speed="3.65" length="4.67" shape="468.47,2219.57 468.33,2218.14 468.70,2217.32 469.57,2217.13 470.95,2217.55"/>
    </edge>
    <edge id=":232748692_2" function="internal">