<?xml version="1.0" encoding="UTF-8"?>

<!-- generated on Sun Aug 23 16:38:49 2020 by Eclipse SUMO polyconvert Version 1.6.0
<configuration xmlns:xsi="http://www.w3.org/2001/XMLSchema-instance" xsi:noNamespaceSchemaLocation="http://sumo.dlr.de/xsd/polyconvertConfiguration.xsd">

    <input>
        <net-file value="osm.net.xml"/>
        <osm-files value="osm_bbox.osm.xml"/>
        <osm.keep-full-type value="true"/>
        <type-file value="/usr/share/sumo/data/typemap/osmPolyconvert.typ.xml"/>
    </input>

    <output>
        <output-file value="osm.poly.xml"/>
    </output>

    <processing>
        <poi-layer-offset value="5"/>
    </processing>

    <report>
        <verbose value="true"/>
    </report>

</configuration>
-->

<additional xmlns:xsi="http://www.w3.org/2001/XMLSchema-instance" xsi:noNamespaceSchemaLocation="http://sumo.dlr.de/xsd/additional_file.xsd">
    <location netOffset="-365532.56,3836927.70" convBoundary="-0.00,0.00,6667.88,4683.87" origBoundary="-58.467137,-34.665694,-58.394123,-34.624116" projParameter="+proj=utm +zone=21 +ellps=WGS84 +datum=WGS84 +units=m +no_defs"/>

    <poly id="142320049" type="building.transportation" color="255,230,230" fill="0" layer="-1.00" shape="515.625911,2459.414046 513.685539,2457.300496 473.202603,2498.299343 481.329088,2510.031186 487.880857,2522.250435 517.430352,2507.559866 538.521271,2497.072655 524.733464,2469.241063 523.264073,2467.522586"/>
    <poly id="205354136" type="amenity.place_of_worship" color="237,199,199" fill="1" layer="-1.00" shape="349.773251,2465.237686 360.736908,2453.927151 340.773631,2434.735453 329.810132,2446.034875 349.773251,2465.237686"/>
    <poly id="205354136#1" type="building.yes" color="255,230,230" fill="1" layer="-1.00" shape="349.773251,2465.237686 360.736908,2453.927151 340.773631,2434.735453 329.810132,2446.034875 349.773251,2465.237686"/>
    <poly id="205354137" type="leisure.park" color="207,245,201" fill="1" layer="-2.00" shape="429.055887,2518.202207 430.771566,2523.795589 431.932001,2529.114689 432.626951,2531.764812 434.388024,2546.232924 434.625292,2551.993423 434.714993,2554.024669 441.768980,2548.691668 444.141801,2546.906917 446.254602,2545.351336 453.593839,2539.944819 460.382140,2536.493690 446.753595,2529.917691 435.593228,2522.567732 429.055887,2518.202207"/>
    <poly id="205355864" type="building.yes" color="255,230,230" fill="1" layer="-1.00" shape="964.139058,2149.348842 959.085123,2145.737244 920.693114,2198.958888 925.747065,2202.570505 964.139058,2149.348842"/>
    <poly id="205355865" type="building.yes" color="255,230,230" fill="1" layer="-1.00" shape="1052.552216,2241.053215 1045.286836,2248.369172 1062.279905,2265.087128 1069.545283,2257.771157 1052.552216,2241.053215"/>
    <poly id="205355866" type="building.yes" color="255,230,230" fill="1" layer="-1.00" shape="1025.498545,2171.966065 1019.832732,2171.362839 1008.772666,2252.223107 1015.611222,2252.876563 1025.498545,2171.966065"/>
    <poly id="205355867" type="building.yes" color="255,230,230" fill="1" layer="-1.00" shape="984.781587,2189.447388 978.645524,2187.129084 955.976262,2246.634679 962.112361,2248.952997 984.781587,2189.447388"/>
    <poly id="205355872" type="building.yes" color="255,230,230" fill="1" layer="-1.00" shape="1029.458393,2265.888573 1022.742293,2273.889097 1041.846600,2289.783470 1048.553369,2281.793890 1029.458393,2265.888573"/>
    <poly id="205355874" type="building.yes" color="255,230,230" fill="1" layer="-1.00" shape="999.618309,2124.470818 993.697358,2131.373555 1010.369527,2145.535695 1016.290634,2138.621856 999.618309,2124.470818"/>
    <poly id="205355877" type="amenity.parking" color="184,184,179" fill="1" layer="-1.00" shape="981.560098,2135.169253 1002.247722,2112.528848 1015.092441,2098.471630 994.439155,2081.955790 962.223005,2117.651852 981.560098,2135.169253"/>
    <poly id="205355882" type="building.yes" color="255,230,230" fill="1" layer="-1.00" shape="1029.052279,2068.778898 1023.498354,2073.124573 1062.064338,2122.001033 1067.618271,2117.655334 1029.052279,2068.778898"/>
    <poly id="205355888" type="building.yes" color="255,230,230" fill="1" layer="-1.00" shape="1037.737609,2119.253563 1019.138089,2103.344272 1013.255109,2110.158829 1031.845308,2126.079090 1037.737609,2119.253563"/>
    <poly id="205355889" type="building.yes" color="255,230,230" fill="1" layer="-1.00" shape="1062.438999,2150.004079 1055.738543,2150.583924 1062.625327,2229.118937 1069.325839,2228.539085 1062.438999,2150.004079"/>
    <poly id="205356997" type="landuse.cemetery" color="194,194,130" fill="1" layer="-3.00" shape="1031.285946,1867.902559 1025.606648,1894.886357 1023.498867,1926.558463 1026.842448,1955.902261 1034.182241,1978.947762 1041.100635,2001.976072 1047.751263,2020.064314 1059.765553,2042.533958 1076.020170,2064.654413 1097.215885,2083.607173 1122.100252,2101.692463 1147.160506,2115.221178 1175.260625,2125.831989 1210.435753,2131.508789 1242.478355,2133.191311 1275.282038,2131.046676 1303.011733,2123.493238 1331.501790,2112.157030 1408.829349,2183.243370 1422.718447,2173.648770 1426.905158,2176.382392 1440.582536,2186.573814 1476.552969,2201.978107 1632.317264,2047.515802 1632.940277,2039.893100 1581.216628,1984.041155 1571.147521,1970.285696 1565.247453,1956.667878 1556.201979,1930.392560 1553.359789,1922.143167 1547.144141,1889.696746 1539.168817,1842.582825 1533.255827,1815.864497 1516.335617,1788.998766 1474.341229,1754.705912 1443.126222,1737.029508 1400.838724,1723.109094 1356.873461,1716.208065 1325.421787,1714.967006 1199.028746,1722.683127 1171.134996,1735.325327 1149.801389,1752.000032 1138.879559,1760.538897 1075.963636,1819.818447 1061.039976,1835.675971 1031.285946,1867.902559"/>
    <poly id="205360649" type="landuse.residential" color="235,235,227" fill="1" layer="-3.00" shape="862.028339,2055.992227 942.762444,2127.697663 1028.978323,2032.028151 1019.893658,2014.270773 1010.999933,1983.304894 1005.197767,1947.746992 1003.440720,1927.876985 1004.324682,1900.968090 862.028339,2055.992227"/>
    <poly id="205360650" type="amenity.school" color="237,199,199" fill="1" layer="-1.00" shape="802.936047,2121.914374 827.563453,2143.790420 843.257602,2157.739050 883.670162,2193.631406 942.762444,2127.697663 862.028339,2055.992227 802.936047,2121.914374"/>
    <poly id="205360651" type="building.yes" color="255,230,230" fill="1" layer="-1.00" shape="916.955641,2004.806990 925.167275,2012.557443 998.889525,1935.154483 990.677745,1927.415185 916.955641,2004.806990"/>
    <poly id="205360652" type="building.yes" color="255,230,230" fill="1" layer="-1.00" shape="907.552400,2016.063061 871.635806,2057.872765 881.089915,2065.918546 917.006494,2024.108806 907.552400,2016.063061"/>
    <poly id="205360910" type="landuse.residential" color="235,235,227" fill="1" layer="-3.00" shape="1037.662201,2043.900665 891.224618,2206.264199 1020.939117,2330.157804 1168.305298,2156.136294 1196.273216,2202.596268 1307.815998,2309.085422 1410.087142,2203.472111 1394.498366,2192.964693 1332.936791,2130.890852 1285.582358,2141.466943 1249.689798,2146.118343 1219.136659,2145.400208 1190.663677,2141.561708 1168.137555,2135.368602 1141.294416,2125.951731 1115.832702,2113.559737 1095.352955,2101.516942 1079.771741,2090.521004 1057.922556,2071.115060 1046.310688,2058.224116 1037.662201,2043.900665"/>
    <poly id="205371813" type="building.yes" color="255,230,230" fill="1" layer="-1.00" shape="1087.243190,2306.301618 1075.323966,2295.624803 1044.328794,2329.907855 1056.238866,2340.584577 1087.243190,2306.301618"/>
    <poly id="23634288" type="amenity.hospital" color="237,199,199" fill="1" layer="-1.00" shape="1020.939117,2330.157804 1168.980193,2459.960057 1307.815998,2309.085422 1196.273216,2202.596268 1168.305298,2156.136294 1020.939117,2330.157804"/>
    <poly id="242365069" type="leisure.park" color="207,245,201" fill="1" layer="-2.00" shape="563.918565,2506.980546 569.715300,2506.787275 575.386127,2507.058064 587.568454,2508.421577 592.313210,2504.275176 593.586094,2498.680780 588.700434,2488.515706 580.869228,2476.011762 578.847490,2482.671281 577.624927,2486.691258 572.160756,2496.828311 563.918565,2506.980546"/>
    <poly id="286803242" type="leisure.park" color="207,245,201" fill="0" layer="-2.00" shape="554.839143,2411.119878 560.228346,2419.428721 560.712676,2420.167855 566.710361,2438.357918 567.890968,2457.465376 564.180819,2476.246794 562.133662,2480.232628 555.817550,2493.485428 543.349152,2508.057771 527.587023,2519.010517 524.388350,2520.217590 509.540527,2525.648366 490.407980,2527.522798 470.534176,2524.250566 452.228904,2515.865183 445.037602,2509.815199 436.813009,2502.951546 425.382348,2486.435168 418.753928,2467.503738 417.385021,2447.495014 421.401479,2427.841772 425.261282,2420.243905 430.489526,2409.948212 444.016534,2395.080788 461.013343,2384.323585 480.268170,2378.424390 500.399771,2377.806855 519.120328,2382.193754 535.009851,2390.887852 547.939076,2402.057012"/>
    <poly id="448720267" type="leisure.park" color="207,245,201" fill="1" layer="-2.00" shape="433.964906,2574.124651 478.229292,2608.055793 482.733907,2604.039071 512.036724,2577.930658 573.632451,2523.050332 570.981789,2519.340258 565.584799,2518.518807 554.740812,2520.324966 529.812486,2529.913527 506.958277,2542.504922 489.971441,2544.343922 475.200462,2545.105780 467.297166,2547.686613 449.675189,2559.177971 441.428003,2567.765976 433.964906,2574.124651"/>
    <poly id="448724745" type="leisure.park" color="207,245,201" fill="1" layer="-2.00" shape="412.276078,2340.310756 398.431183,2277.935763 393.996140,2282.219673 375.985938,2299.639780 376.433169,2304.826517 376.824616,2309.435630 398.850563,2328.612837 412.276078,2340.310756"/>
    <poly id="448724747" type="leisure.fitness_station" color="207,245,201" fill="1" layer="-2.00" shape="395.679057,2307.113710 400.003030,2309.849801 403.276975,2304.717087 398.962169,2301.981131 397.001661,2305.047503 395.679057,2307.113710"/>
    <poly id="448724747#1" type="sport.fitness" color="79,230,125" fill="1" layer="-2.00" shape="395.679057,2307.113710 400.003030,2309.849801 403.276975,2304.717087 398.962169,2301.981131 397.001661,2305.047503 395.679057,2307.113710"/>
    <poly id="448727519" type="leisure.park" color="207,245,201" fill="1" layer="-2.00" shape="465.857493,2223.595632 461.352547,2228.910170 476.952900,2289.103102 477.695363,2347.239062 493.951154,2347.741125 496.590184,2347.823780 510.658338,2318.388451 506.492823,2300.302566 504.736990,2289.262151 510.021345,2280.775325 515.187006,2274.782608 517.527270,2272.076684 514.410247,2266.396434 468.029834,2225.512896 465.857493,2223.595632"/>
    <poly id="448736327" type="leisure.fitness_station" color="207,245,201" fill="1" layer="-2.00" shape="474.947003,2253.599882 478.978729,2248.045527 477.509055,2246.981499 472.401054,2243.313383 468.369327,2248.867735 474.947003,2253.599882"/>
    <poly id="448736327#1" type="sport.fitness" color="79,230,125" fill="1" layer="-2.00" shape="474.947003,2253.599882 478.978729,2248.045527 477.509055,2246.981499 472.401054,2243.313383 468.369327,2248.867735 474.947003,2253.599882"/>
    <poly id="448736752" type="leisure.pitch" color="207,245,201" fill="1" layer="-2.00" shape="485.711257,2252.846469 487.701707,2259.087200 490.332115,2267.344974 493.217064,2276.382921 479.062007,2280.847536 471.556071,2257.322162 485.711257,2252.846469"/>
    <poly id="448736752#1" type="sport.soccer;basketball" color="79,230,125" fill="1" layer="-2.00" shape="485.711257,2252.846469 487.701707,2259.087200 490.332115,2267.344974 493.217064,2276.382921 479.062007,2280.847536 471.556071,2257.322162 485.711257,2252.846469"/>
    <poly id="448737950" type="leisure.pitch" color="207,245,201" fill="1" layer="-2.00" shape="484.183463,2292.435954 488.964867,2301.556880 494.881598,2300.666570 492.477715,2295.118677 489.648052,2288.588458 484.183463,2292.435954"/>
    <poly id="448737950#1" type="sport.ping_pong" color="79,230,125" fill="1" layer="-2.00" shape="484.183463,2292.435954 488.964867,2301.556880 494.881598,2300.666570 492.477715,2295.118677 489.648052,2288.588458 484.183463,2292.435954"/>
    <poly id="448742108" type="leisure.playground" color="207,245,201" fill="1" layer="-2.00" shape="488.840654,2310.118559 489.144663,2316.967100 489.763452,2331.185688 494.688873,2331.013106 496.222220,2314.418648 496.591123,2310.475036 496.722346,2309.012718 488.840654,2310.118559"/>
    <poly id="448742741" type="leisure.park" color="207,245,201" fill="1" layer="-2.00" shape="557.687414,2384.760821 559.457496,2382.179729 569.329769,2368.346211 558.243146,2374.885383 553.900920,2376.563956 550.019384,2378.082818 557.687414,2384.760821"/>
    <poly id="448742742" type="leisure.park" color="207,245,201" fill="1" layer="-2.00" shape="565.457723,2391.972743 570.079908,2398.173961 572.457333,2401.125781 573.705938,2396.573738 575.359753,2387.468516 578.479408,2375.267529 567.101094,2389.911165 565.457723,2391.972743"/>
    <poly id="448745455" type="leisure.dog_park" color="207,245,201" fill="1" layer="-2.00" shape="443.233202,2437.687164 451.641994,2433.117024 446.890453,2424.462404 438.481667,2429.032540 440.652096,2432.979724 443.233202,2437.687164"/>
    <poly id="448746145" type="leisure.park" color="207,245,201" fill="1" layer="-2.00" shape="403.201715,2469.041711 393.671331,2461.826283 397.726457,2459.089818 402.735300,2455.701641 403.201715,2469.041711"/>
    <poly id="448746436" type="leisure.park" color="207,245,201" fill="1" layer="-2.00" shape="406.766732,2417.967692 409.838099,2412.898590 412.810885,2408.305038 415.965229,2402.571583 395.525577,2397.249925 390.816387,2397.680724 392.561951,2401.843605 406.766732,2417.967692"/>
    <poly id="448823107" type="leisure.track" color="207,245,201" fill="0" layer="-2.00" shape="551.885732,2410.588979 555.470599,2416.253810 557.928101,2421.270015 564.910202,2439.851502 566.506794,2454.295013 566.610834,2457.868334 563.162145,2475.688487 561.011110,2479.883574 554.558155,2492.457742 542.787313,2506.973643 527.385061,2517.765219 523.682918,2518.920619 505.149030,2525.030039 490.876572,2525.555115 486.449218,2524.880795 471.255228,2522.574954 470.034103,2522.069163 454.388959,2515.475008 445.751898,2508.605379 442.597966,2506.097055 438.102804,2502.515468 427.023164,2486.447890 420.165921,2467.490954 419.814807,2462.627302 418.730438,2447.647654 422.697675,2428.858919 426.754462,2420.953318 432.056351,2410.636508 445.543307,2396.633723 461.671633,2386.340896 480.941905,2380.009313 500.618283,2379.806691 511.536384,2382.361066 518.748065,2384.473428 533.629220,2392.531718 535.966114,2394.484626 549.351371,2407.080249"/>
    <poly id="448823107#1" type="sport.running" color="79,230,125" fill="0" layer="-2.00" shape="551.885732,2410.588979 555.470599,2416.253810 557.928101,2421.270015 564.910202,2439.851502 566.506794,2454.295013 566.610834,2457.868334 563.162145,2475.688487 561.011110,2479.883574 554.558155,2492.457742 542.787313,2506.973643 527.385061,2517.765219 523.682918,2518.920619 505.149030,2525.030039 490.876572,2525.555115 486.449218,2524.880795 471.255228,2522.574954 470.034103,2522.069163 454.388959,2515.475008 445.751898,2508.605379 442.597966,2506.097055 438.102804,2502.515468 427.023164,2486.447890 420.165921,2467.490954 419.814807,2462.627302 418.730438,2447.647654 422.697675,2428.858919 426.754462,2420.953318 432.056351,2410.636508 445.543307,2396.633723 461.671633,2386.340896 480.941905,2380.009313 500.618283,2379.806691 511.536384,2382.361066 518.748065,2384.473428 533.629220,2392.531718 535.966114,2394.484626 549.351371,2407.080249"/>
    <poly id="463966361" type="building.yes" color="255,230,230" fill="1" layer="-1.00" shape="690.315798,2151.719912 708.799277,2133.207917 739.635923,2163.726524 721.152451,2182.238579 690.315798,2151.719912"/>
    <poly id="463974641" type="building.yes" color="255,230,230" fill="1" layer="-1.00" shape="588.876038,2436.560585 590.702929,2449.665226 599.497395,2440.619141 603.673365,2437.130045 595.464163,2429.834148 588.876038,2436.560585"/>
    <poly id="476365501" type="building.residential" color="255,230,230" fill="1" layer="-1.00" shape="270.577677,2357.764654 275.935877,2361.247943 282.573881,2349.209088 276.845176,2346.618919 270.577677,2357.764654"/>
    <poly id="476365502" type="building.residential" color="255,230,230" fill="1" layer="-1.00" shape="275.935877,2361.247943 282.573881,2349.209088 289.968262,2353.254400 290.134616,2355.686097 281.465830,2364.267835 275.935877,2361.247943"/>
    <poly id="476975328" type="building.yes" color="255,230,230" fill="1" layer="-1.00" shape="561.729445,2357.631497 547.330417,2342.248041 553.779258,2336.273911 557.110357,2339.838564 571.166251,2354.862066 561.729445,2357.631497"/>
    <poly id="476975328#1" type="shop.medical_supply" color="237,199,255" fill="1" layer="-1.00" shape="561.729445,2357.631497 547.330417,2342.248041 553.779258,2336.273911 557.110357,2339.838564 571.166251,2354.862066 561.729445,2357.631497"/>
    <poly id="476975329" type="building.yes" color="255,230,230" fill="1" layer="-1.00" shape="571.166251,2354.862066 576.607840,2348.806761 561.410920,2334.709592 557.110357,2339.838564 571.166251,2354.862066"/>
    <poly id="476975329#1" type="shop.yes" color="237,199,255" fill="1" layer="-1.00" shape="571.166251,2354.862066 576.607840,2348.806761 561.410920,2334.709592 557.110357,2339.838564 571.166251,2354.862066"/>
    <poly id="476975330" type="building.yes" color="255,230,230" fill="1" layer="-1.00" shape="622.888465,2294.181095 632.998078,2284.200083 633.905759,2281.029665 630.752178,2277.866945 626.157576,2282.414871 620.934683,2277.181121 613.382701,2284.636805 622.888465,2294.181095"/>
    <poly id="476975330#1" type="shop.car_parts" color="237,199,255" fill="1" layer="-1.00" shape="622.888465,2294.181095 632.998078,2284.200083 633.905759,2281.029665 630.752178,2277.866945 626.157576,2282.414871 620.934683,2277.181121 613.382701,2284.636805 622.888465,2294.181095"/>
    <poly id="476975331" type="building.yes" color="255,230,230" fill="1" layer="-1.00" shape="686.558497,2193.395782 697.344066,2182.304148 712.361636,2196.753463 705.168046,2204.158945 698.402395,2204.804145 686.558497,2193.395782"/>
    <poly id="476975332" type="building.yes" color="255,230,230" fill="1" layer="-1.00" shape="744.303367,2156.672677 755.669266,2144.114069 726.712848,2116.063115 715.122939,2127.631203 744.303367,2156.672677"/>
    <poly id="476975332#1" type="shop.supermarket" color="237,199,255" fill="1" layer="-1.00" shape="744.303367,2156.672677 755.669266,2144.114069 726.712848,2116.063115 715.122939,2127.631203 744.303367,2156.672677"/>
    <poly id="476975333" type="building.yes" color="255,230,230" fill="1" layer="-1.00" shape="913.879647,1967.125393 919.899637,1960.978434 910.786942,1952.150054 904.775956,1958.308229 913.879647,1967.125393"/>
    <poly id="476975333#1" type="shop.car_repair" color="237,199,255" fill="1" layer="-1.00" shape="913.879647,1967.125393 919.899637,1960.978434 910.786942,1952.150054 904.775956,1958.308229 913.879647,1967.125393"/>
    <poly id="476975334" type="building.yes" color="255,230,230" fill="1" layer="-1.00" shape="924.162893,1952.698476 936.231772,1940.305128 919.424962,1924.077662 907.356080,1936.470989 924.162893,1952.698476"/>
    <poly id="476975334#1" type="shop.paint" color="237,199,255" fill="1" layer="-1.00" shape="924.162893,1952.698476 936.231772,1940.305128 919.424962,1924.077662 907.356080,1936.470989 924.162893,1952.698476"/>
    <poly id="476983240" type="building.yes" color="255,230,230" fill="1" layer="-1.00" shape="646.435480,2307.744704 652.522915,2301.399216 672.905707,2320.762695 666.818274,2327.108196 646.435480,2307.744704"/>
    <poly id="476983240#1" type="shop.yes" color="237,199,255" fill="1" layer="-1.00" shape="646.435480,2307.744704 652.522915,2301.399216 672.905707,2320.762695 666.818274,2327.108196 646.435480,2307.744704"/>
    <poly id="476983241" type="building.yes" color="255,230,230" fill="1" layer="-1.00" shape="681.613126,2269.618927 686.746832,2263.925156 702.240639,2277.782380 697.097771,2283.476027 681.613126,2269.618927"/>
    <poly id="476983241#1" type="shop.yes" color="237,199,255" fill="1" layer="-1.00" shape="681.613126,2269.618927 686.746832,2263.925156 702.240639,2277.782380 697.097771,2283.476027 681.613126,2269.618927"/>
    <poly id="476983242" type="building.yes" color="255,230,230" fill="1" layer="-1.00" shape="746.368240,2206.530452 740.769076,2201.956876 740.704071,2199.482289 744.566779,2194.191601 746.352581,2194.317294 752.386702,2199.241035 746.368240,2206.530452"/>
    <poly id="476994966" type="building.residential" color="255,230,230" fill="1" layer="-1.00" shape="248.530563,2295.902479 252.947623,2288.445889 246.236320,2281.559673 240.796982,2286.816157 240.495330,2291.171167 248.530563,2295.902479"/>
    <poly id="476994967" type="building.retail" color="255,230,230" fill="1" layer="-1.00" shape="248.530563,2295.902479 252.947623,2288.445889 258.883201,2282.475590 264.873987,2289.107289 255.092117,2299.846977 248.530563,2295.902479"/>
    <poly id="476994968" type="building.yes" color="255,230,230" fill="1" layer="-1.00" shape="255.092117,2299.846977 264.873987,2289.107289 270.774423,2285.554659 277.298611,2291.439804 263.082259,2307.051271 255.092117,2299.846977"/>
    <poly id="476994968#1" type="shop.yes" color="237,199,255" fill="1" layer="-1.00" shape="255.092117,2299.846977 264.873987,2289.107289 270.774423,2285.554659 277.298611,2291.439804 263.082259,2307.051271 255.092117,2299.846977"/>
    <poly id="476994969" type="building.yes" color="255,230,230" fill="1" layer="-1.00" shape="288.074470,2318.285185 296.043516,2322.527417 313.875083,2306.058826 308.070927,2299.829206 288.074470,2318.285185"/>
    <poly id="476994969#1" type="shop.car_repair" color="237,199,255" fill="1" layer="-1.00" shape="288.074470,2318.285185 296.043516,2322.527417 313.875083,2306.058826 308.070927,2299.829206 288.074470,2318.285185"/>
    <poly id="476994970" type="amenity.restaurant" color="237,199,199" fill="1" layer="-1.00" shape="340.716884,2348.378744 351.200111,2337.316376 344.833108,2331.333738 334.973474,2341.750692 334.438411,2345.137257 340.716884,2348.378744"/>
    <poly id="476994970#1" type="building.yes" color="255,230,230" fill="1" layer="-1.00" shape="340.716884,2348.378744 351.200111,2337.316376 344.833108,2331.333738 334.973474,2341.750692 334.438411,2345.137257 340.716884,2348.378744"/>
    <poly id="476994971" type="amenity.car_wash" color="237,199,199" fill="1" layer="-1.00" shape="372.578773,2368.242398 383.433755,2356.830430 386.725734,2359.928690 376.680877,2370.476110 372.578773,2368.242398"/>
    <poly id="476994971#1" type="building.yes" color="255,230,230" fill="1" layer="-1.00" shape="372.578773,2368.242398 383.433755,2356.830430 386.725734,2359.928690 376.680877,2370.476110 372.578773,2368.242398"/>
    <poly id="476994972" type="building.yes" color="255,230,230" fill="1" layer="-1.00" shape="382.016308,2373.005042 392.360702,2363.926188 394.459816,2370.257258 386.093124,2377.612198 382.016308,2373.005042"/>
    <poly id="476994972#1" type="shop.tyres" color="237,199,255" fill="1" layer="-1.00" shape="382.016308,2373.005042 392.360702,2363.926188 394.459816,2370.257258 386.093124,2377.612198 382.016308,2373.005042"/>
    <poly id="476994973" type="amenity.bar" color="237,199,199" fill="1" layer="-1.00" shape="590.702929,2449.665226 599.497395,2440.619141 605.654629,2446.543089 593.360994,2459.187917 590.702929,2449.665226"/>
    <poly id="476994973#1" type="building.yes" color="255,230,230" fill="1" layer="-1.00" shape="590.702929,2449.665226 599.497395,2440.619141 605.654629,2446.543089 593.360994,2459.187917 590.702929,2449.665226"/>
    <poly id="51574179" type="building.roof" color="255,230,230" fill="1" layer="-1.00" shape="247.893398,1960.053396 269.297236,1946.898062 292.534079,1932.504759 300.032987,1945.736280 277.063869,1959.368102 255.782225,1972.314471 247.893398,1960.053396"/>
    <poly id="792699735" type="building.transportation" color="255,230,230" fill="0" layer="-1.00" shape="523.264073,2467.522586 521.321607,2465.553210 518.073607,2461.945381 515.625911,2459.414046"/>
    <poly id="792699736" type="leisure.park" color="207,245,201" fill="0" layer="-2.00" shape="554.839143,2411.119878 553.033838,2414.865180"/>
    <poly id="792699737" type="leisure.park" color="207,245,201" fill="0" layer="-2.00" shape="547.939076,2402.057012 545.666645,2406.405631"/>
    <poly id="792699738" type="leisure.park" color="207,245,201" fill="0" layer="-2.00" shape="553.033838,2414.865180 531.997860,2452.552239 523.264073,2467.522586"/>
    <poly id="792699739" type="leisure.park" color="207,245,201" fill="0" layer="-2.00" shape="545.666645,2406.405631 524.738709,2444.859630 515.625911,2459.414046"/>
    <poi id="1112532207" type="shop.supermarket" color="237,199,255" layer="4.00" x="259.58" y="2336.40"/>
    <poi id="1467499839" type="amenity.taxi" color="237,199,199" layer="4.00" x="548.38" y="2525.59"/>
    <poi id="3739731459" type="amenity.school" color="237,199,199" layer="4.00" x="829.04" y="2247.59"/>
    <poi id="4457079140" type="amenity.bench" color="237,199,199" layer="4.00" x="386.44" y="2299.82"/>
    <poi id="4457079141" type="amenity.bench" color="237,199,199" layer="4.00" x="393.30" y="2319.01"/>
    <poi id="4457200012" type="amenity.bench" color="237,199,199" layer="4.00" x="490.96" y="2264.87"/>
    <poi id="4457246193" type="amenity.bench" color="237,199,199" layer="4.00" x="518.93" y="2404.69"/>
    <poi id="4457246199" type="amenity.bench" color="237,199,199" layer="4.00" x="506.60" y="2399.36"/>
    <poi id="4457276797" type="amenity.bench" color="237,199,199" layer="4.00" x="439.19" y="2460.28"/>
    <poi id="4457285124" type="amenity.bench" color="237,199,199" layer="4.00" x="439.75" y="2437.05"/>
    <poi id="4457356693" type="amenity.bench" color="237,199,199" layer="4.00" x="534.67" y="2535.08"/>
    <poi id="4457356696" type="amenity.bench" color="237,199,199" layer="4.00" x="540.46" y="2542.98"/>
    <poi id="4699637703" type="amenity.ice_cream" color="237,199,199" layer="4.00" x="278.01" y="2350.04"/>
    <poi id="4699637707" type="shop.yes" color="237,199,255" layer="4.00" x="286.30" y="2353.60"/>
    <poi id="4699650193" type="amenity.pharmacy" color="237,199,199" layer="4.00" x="533.10" y="2494.10"/>
    <poi id="4703935138" type="shop.lottery" color="237,199,255" layer="4.00" x="708.34" y="2197.48"/>
    <poi id="4703935143" type="shop.yes" color="237,199,255" layer="4.00" x="722.89" y="2176.54"/>
    <poi id="4704001801" type="shop.yes" color="237,199,255" layer="4.00" x="743.82" y="2197.94"/>
    <poi id="4704113473" type="shop.lottery" color="237,199,255" layer="4.00" x="252.40" y="2292.56"/>
    <poi id="4704113474" type="shop.clothes" color="237,199,255" layer="4.00" x="256.30" y="2292.13"/>
    <poi id="4835582021" type="shop.outdoor" color="237,199,255" layer="4.00" x="1025.07" y="2289.10"/>
    <poi id="5117419994" type="amenity.school" color="237,199,199" layer="4.00" x="627.03" y="2456.65"/>
    <poi id="5117454935" type="amenity.school" color="237,199,199" layer="4.00" x="647.39" y="2062.99"/>
    <poi id="5117454937" type="amenity.school" color="237,199,199" layer="4.00" x="1040.17" y="2513.63"/>
    <poi id="5117565876" type="amenity.kindergarten" color="237,199,199" layer="4.00" x="884.85" y="2181.31"/>
    <poi id="6564208579" type="amenity.bicycle_rental" color="237,199,199" layer="4.00" x="901.83" y="2201.07"/>
</additional>
