<?xml version="1.0" encoding="UTF-8"?>

<!-- generated on Thu Aug 20 14:03:38 2020 by Eclipse SUMO polyconvert Version 1.6.0
<configuration xmlns:xsi="http://www.w3.org/2001/XMLSchema-instance" xsi:noNamespaceSchemaLocation="http://sumo.dlr.de/xsd/polyconvertConfiguration.xsd">

    <input>
        <net-file value="osm.net.xml"/>
        <osm-files value="osm_bbox.osm.xml"/>
        <osm.keep-full-type value="true"/>
        <type-file value="/usr/share/sumo/data/typemap/osmPolyconvert.typ.xml"/>
    </input>

    <output>
        <output-file value="osm.poly.xml"/>
    </output>

    <processing>
        <poi-layer-offset value="5"/>
    </processing>

    <report>
        <verbose value="true"/>
    </report>

</configuration>
-->

<additional xmlns:xsi="http://www.w3.org/2001/XMLSchema-instance" xsi:noNamespaceSchemaLocation="http://sumo.dlr.de/xsd/additional_file.xsd">
    <location netOffset="-362743.27,3836927.70" convBoundary="-1835.33,-2095.84,14385.23,9377.39" origBoundary="-58.517549,-34.684650,-58.340404,-34.581501" projParameter="+proj=utm +zone=21 +ellps=WGS84 +datum=WGS84 +units=m +no_defs"/>

    <poly id="105653198" type="leisure.pitch" color="207,245,201" fill="1" layer="-2.00" shape="12175.206420,3512.298009 12115.325185,3481.482901 12163.418945,3388.871780 12223.299560,3419.697683 12175.206420,3512.298009"/>
    <poly id="105653198#1" type="sport.soccer" color="79,230,125" fill="1" layer="-2.00" shape="12175.206420,3512.298009 12115.325185,3481.482901 12163.418945,3388.871780 12223.299560,3419.697683 12175.206420,3512.298009"/>
    <poly id="113082356" type="building.yes" color="255,230,230" fill="1" layer="-1.00" shape="11606.316335,4081.890362 11614.626181,3985.246721 11610.574782,3980.444199 11546.428862,3970.509431 11542.057761,3973.034427 11538.234456,4002.010520 11603.711665,4082.620299 11606.316335,4081.890362"/>
    <poly id="114008100" type="leisure.pitch" color="207,245,201" fill="1" layer="-2.00" shape="4623.250264,2064.490732 4544.809905,2134.477920 4589.691229,2184.329271 4668.131473,2114.352795 4623.250264,2064.490732"/>
    <poly id="114008101" type="leisure.pitch" color="207,245,201" fill="1" layer="-2.00" shape="4627.099755,1971.357717 4602.183532,1994.349569 4637.518482,2032.283307 4687.898880,1985.796963 4665.139795,1961.355038 4639.675628,1984.849373 4627.099755,1971.357717"/>
    <poly id="114008101#1" type="sport.tennis" color="79,230,125" fill="1" layer="-2.00" shape="4627.099755,1971.357717 4602.183532,1994.349569 4637.518482,2032.283307 4687.898880,1985.796963 4665.139795,1961.355038 4639.675628,1984.849373 4627.099755,1971.357717"/>
    <poly id="114008107" type="leisure.pitch" color="207,245,201" fill="1" layer="-2.00" shape="4557.433315,1979.452673 4595.517184,1945.990208 4619.918625,1973.506351 4581.834741,2006.968916 4557.433315,1979.452673"/>
    <poly id="114008107#1" type="sport.tennis" color="79,230,125" fill="1" layer="-2.00" shape="4557.433315,1979.452673 4595.517184,1945.990208 4619.918625,1973.506351 4581.834741,2006.968916 4557.433315,1979.452673"/>
    <poly id="114009052" type="building.yes" color="255,230,230" fill="1" layer="-1.00" shape="4315.610990,1956.262818 4397.786861,2045.265188 4291.831037,2142.208583 4231.796553,2077.195763 4285.517916,2028.041971 4274.911894,2016.563748 4263.367257,2004.062571 4315.610990,1956.262818"/>
    <poly id="122969185" type="building.train_station" color="255,230,230" fill="1" layer="-1.00" shape="9579.019625,2332.860875 9576.290533,2337.969952 9571.914876,2346.139911 9569.167139,2351.270913 9588.223388,2361.373214 9595.666968,2347.455499 9602.734102,2334.242479 9588.037115,2326.441110 9587.039680,2328.301913 9582.689625,2326.001136 9579.019625,2332.860875"/>
    <poly id="122969187" type="building.stadium" color="255,230,230" fill="1" layer="-1.00" shape="9299.023778,2622.387199 9287.501257,2621.661846 9277.116516,2618.877989 9187.595933,2560.778051 9177.318480,2553.569746 9171.359761,2537.702796 9170.205989,2519.761672 9174.396702,2501.162579 9184.293199,2479.647698 9196.200149,2462.553228 9207.029016,2452.465208 9223.360676,2445.503843 9239.994552,2444.514285 9256.631193,2448.616089 9345.581811,2497.512011 9357.620599,2511.255681 9363.243616,2528.215985 9362.799112,2544.426726 9359.402579,2559.986512 9355.023881,2574.312545 9348.575795,2587.800181 9340.044075,2598.829747 9329.236600,2608.696373 9321.483562,2614.467881 9310.659368,2618.921227 9299.023778,2622.387199"/>
    <poly id="122969187#1" type="leisure.stadium" color="207,245,201" fill="1" layer="-2.00" shape="9299.023778,2622.387199 9287.501257,2621.661846 9277.116516,2618.877989 9187.595933,2560.778051 9177.318480,2553.569746 9171.359761,2537.702796 9170.205989,2519.761672 9174.396702,2501.162579 9184.293199,2479.647698 9196.200149,2462.553228 9207.029016,2452.465208 9223.360676,2445.503843 9239.994552,2444.514285 9256.631193,2448.616089 9345.581811,2497.512011 9357.620599,2511.255681 9363.243616,2528.215985 9362.799112,2544.426726 9359.402579,2559.986512 9355.023881,2574.312545 9348.575795,2587.800181 9340.044075,2598.829747 9329.236600,2608.696373 9321.483562,2614.467881 9310.659368,2618.921227 9299.023778,2622.387199"/>
    <poly id="122969191" type="leisure.pitch" color="207,245,201" fill="1" layer="-2.00" shape="9208.176794,2533.654408 9294.808205,2582.585186 9326.697368,2526.622771 9240.066190,2477.703368 9208.176794,2533.654408"/>
    <poly id="122969191#1" type="sport.soccer" color="79,230,125" fill="1" layer="-2.00" shape="9208.176794,2533.654408 9294.808205,2582.585186 9326.697368,2526.622771 9240.066190,2477.703368 9208.176794,2533.654408"/>
    <poly id="122969767" type="building.yes" color="255,230,230" fill="1" layer="-1.00" shape="11593.549497,4434.812382 11628.776072,4438.252923 11631.444779,4411.235518 11639.356311,4412.008592 11642.630130,4378.920928 11628.885689,4377.580509 11629.502724,4371.310757 11610.960213,4369.494674 11611.715283,4361.840283 11600.855398,4360.771975 11593.549497,4434.812382"/>
    <poly id="122969767#1" type="tourism.museum" color="207,245,201" fill="1" layer="-2.00" shape="11593.549497,4434.812382 11628.776072,4438.252923 11631.444779,4411.235518 11639.356311,4412.008592 11642.630130,4378.920928 11628.885689,4377.580509 11629.502724,4371.310757 11610.960213,4369.494674 11611.715283,4361.840283 11600.855398,4360.771975 11593.549497,4434.812382"/>
    <poly id="123461907" type="building.yes" color="255,230,230" fill="1" layer="-1.00" shape="12270.913216,4770.327513 12268.068825,4780.637961 12219.569556,4774.724306 12221.151625,4766.903605 12223.681326,4761.558167 12227.201280,4756.215032 12230.698712,4751.858787 12235.674698,4748.010593 12238.653234,4746.087585 12245.412285,4755.485269 12253.172240,4763.421239 12262.816155,4768.332357 12270.913216,4770.327513"/>
    <poly id="123462965" type="building.yes" color="255,230,230" fill="1" layer="-1.00" shape="12066.161063,4327.011524 12086.155621,4311.653608 12088.606744,4314.814781 12101.142628,4305.190248 12098.484261,4301.760061 12126.363339,4280.352732 12120.127472,4272.304163 12094.574005,4291.923867 12086.031313,4280.893530 12110.083918,4262.418194 12104.559967,4255.288806 12078.876817,4275.006540 12065.576075,4257.844348 12094.279695,4235.804946 12087.196748,4226.668944 12059.438104,4247.989048 12054.220625,4241.252004 12038.997743,4252.947562 12043.584487,4258.866345 12021.153293,4276.087896 12024.820915,4280.818469 12029.759174,4287.185706 12053.515258,4268.950519 12060.093560,4277.436367 12056.609884,4280.106734 12065.927549,4292.134795 12068.901772,4289.845747 12078.598027,4302.355884 12058.825893,4317.539324 12066.161063,4327.011524"/>
    <poly id="123462973" type="amenity.fountain" color="237,199,199" fill="1" layer="-1.00" shape="11794.407929,4560.342241 11817.425155,4542.585641 11821.735852,4547.901810 11822.175431,4555.372766 11820.104626,4562.698728 11812.614239,4567.366665 11802.821709,4567.355752 11794.407929,4560.342241"/>
    <poly id="123462973#1" type="natural.water" color="181,209,209" fill="1" layer="-4.00" shape="11794.407929,4560.342241 11817.425155,4542.585641 11821.735852,4547.901810 11822.175431,4555.372766 11820.104626,4562.698728 11812.614239,4567.366665 11802.821709,4567.355752 11794.407929,4560.342241"/>
    <poly id="123462978" type="amenity.hospital" color="237,199,199" fill="1" layer="-1.00" shape="12075.669096,4348.681187 12156.737315,4285.955080 12088.890864,4199.072559 12052.494171,4227.241470 12007.832056,4261.798194 12075.669096,4348.681187"/>
    <poly id="127537017" type="amenity.school" color="237,199,199" fill="1" layer="-1.00" shape="3793.421199,4448.203036 3765.462776,4434.277431 3758.929765,4447.272246 3786.888219,4461.197870 3793.421199,4448.203036"/>
    <poly id="127537017#1" type="building.yes" color="255,230,230" fill="1" layer="-1.00" shape="3793.421199,4448.203036 3765.462776,4434.277431 3758.929765,4447.272246 3786.888219,4461.197870 3793.421199,4448.203036"/>
    <poly id="127537022" type="amenity.school" color="237,199,199" fill="1" layer="-1.00" shape="4284.351959,4361.825567 4291.384343,4365.687112 4271.163815,4402.145616 4258.008743,4394.923653 4223.611316,4376.014989 4229.871348,4364.735285 4263.177100,4383.040314 4286.532736,4340.903207 4293.756025,4344.878423 4284.351959,4361.825567"/>
    <poly id="129870639" type="leisure.park" color="207,245,201" fill="1" layer="-2.00" shape="3022.261494,4149.747408 3025.500291,4156.549834 3030.489693,4158.352752 3066.816411,4169.850906 3071.531742,4156.430812 3076.227074,4153.858961 3081.732108,4155.514042 3083.565966,4160.565605 3079.255291,4174.535116 3082.056785,4175.463199 3109.957069,4185.696288 3126.239997,4191.501122 3142.994222,4137.668028 3146.466341,4127.136110 3159.683758,4085.752984 3158.767399,4081.291566 3155.767809,4078.219764 3141.935123,4073.548700 3103.447290,4094.088076 3098.056162,4092.168438 3093.531740,4090.549788 3075.425155,4054.380217 3061.645128,4049.876183 3057.115243,4049.266859 3054.960862,4053.029230 3038.643225,4099.503059 3021.218300,4145.184298 3022.261494,4149.747408"/>
    <poly id="130504316" type="leisure.park" color="207,245,201" fill="0" layer="-2.00" shape="2901.946358,2928.889734 2776.446394,2829.914327 2678.298160,2751.612962 2591.725044,2681.232993 2504.479225,2611.807390 2418.206056,2543.038470 2404.973944,2533.205773 2289.222236,2431.603478"/>
    <poly id="130504317" type="leisure.park" color="207,245,201" fill="0" layer="-2.00" shape="3235.931627,3204.234329 3196.532010,3170.983883 3112.643211,3100.204445 3057.514561,3054.778207 3000.103166,3007.488157 2903.704421,2930.301881 2901.946358,2928.889734"/>
    <poly id="130504318" type="leisure.park" color="207,245,201" fill="0" layer="-2.00" shape="2911.598999,2920.156051 3005.514186,2996.008318 3051.063416,3033.730575 3066.959232,3046.473955 3125.070257,3093.607331 3204.585177,3160.008170 3274.493109,3216.906798"/>
    <poly id="130504337" type="leisure.park" color="207,245,201" fill="0" layer="-2.00" shape="2078.492062,2242.076000 2089.432725,2231.786861"/>
    <poly id="134051100" type="leisure.sports_centre" color="207,245,201" fill="1" layer="-2.00" shape="3495.033446,2687.249080 3458.240298,2716.555176 3502.306716,2754.131706 3536.161808,2725.759046 3495.033446,2687.249080"/>
    <poly id="136792897" type="leisure.park" color="207,245,201" fill="1" layer="-2.00" shape="9762.903154,4729.770376 9761.966075,4711.288918 9763.882274,4711.304259 9795.854122,4711.445756 9817.244930,4711.552169 9820.829953,4711.568325 9820.267834,4738.370440 9764.467925,4730.002713 9762.903154,4729.770376"/>
    <poly id="136792899" type="leisure.common" color="207,245,201" fill="0" layer="-2.00" shape="7348.950316,4218.019963 7343.149010,4240.001078"/>
    <poly id="136792903" type="leisure.common" color="207,245,201" fill="0" layer="-2.00" shape="7348.950316,4218.019963 7404.895392,4228.789389"/>
    <poly id="136792905" type="leisure.park" color="207,245,201" fill="1" layer="-2.00" shape="9176.023983,4637.565634 9179.283686,4618.709627 9280.896825,4651.286444 9176.023983,4637.565634"/>
    <poly id="136792906" type="leisure.park" color="207,245,201" fill="1" layer="-2.00" shape="8612.106012,4420.155894 8613.166411,4412.483709 8644.771233,4418.514117 8644.054010,4421.953832 8639.719850,4423.723737 8634.140709,4424.688761 8612.106012,4420.155894"/>
    <poly id="136792908" type="leisure.park" color="207,245,201" fill="1" layer="-2.00" shape="9516.353196,4669.518358 9517.237797,4653.946009 9586.077656,4660.864846 9583.708208,4687.686380 9516.353196,4669.518358"/>
    <poly id="136792909" type="leisure.park" color="207,245,201" fill="1" layer="-2.00" shape="9356.371600,4698.885349 9357.929376,4688.358194 9387.492246,4696.265606 9386.089934,4703.511615 9356.371600,4698.885349"/>
    <poly id="136792915" type="leisure.park" color="207,245,201" fill="0" layer="-2.00" shape="9843.383602,4854.136815 9849.220626,4787.242548"/>
    <poly id="136792925" type="leisure.park" color="207,245,201" fill="0" layer="-2.00" shape="9429.489823,4643.115811 9500.402310,4664.594773"/>
    <poly id="136792931" type="leisure.common" color="207,245,201" fill="1" layer="-2.00" shape="8129.965922,4407.985301 8133.137899,4392.933002 8143.224872,4393.528722 8129.965922,4407.985301"/>
    <poly id="136792932" type="leisure.park" color="207,245,201" fill="1" layer="-2.00" shape="9421.759968,4719.356706 9421.651126,4703.360207 9469.671466,4716.625056 9468.366283,4726.135231 9421.759968,4719.356706"/>
    <poly id="136792933" type="leisure.park" color="207,245,201" fill="1" layer="-2.00" shape="8884.779170,4544.287579 8885.281256,4525.304605 8895.951496,4528.148234 8895.221784,4547.017123 8884.779170,4544.287579"/>
    <poly id="136792934" type="leisure.park" color="207,245,201" fill="1" layer="-2.00" shape="7356.152873,4243.766714 7408.479553,4234.729787 7411.626865,4235.217705 7434.434935,4238.810401 7436.276001,4238.947189 7442.641942,4240.068208 7440.790067,4250.491176 7438.942345,4261.923604 7356.152873,4243.766714"/>
    <poly id="136792935" type="leisure.sports_centre" color="207,245,201" fill="1" layer="-2.00" shape="8192.364231,4355.336637 8222.474914,4323.877863 8291.446735,4332.960234 8295.512614,4337.276416 8291.954575,4370.814224 8192.364231,4355.336637"/>
    <poly id="136792936" type="leisure.park" color="207,245,201" fill="1" layer="-2.00" shape="9585.094897,4761.213677 9587.206808,4745.070395 9642.852734,4756.620534 9641.994763,4767.623258 9585.094897,4761.213677"/>
    <poly id="136792937" type="leisure.park" color="207,245,201" fill="0" layer="-2.00" shape="9429.489823,4643.115811 9431.737182,4630.457384 9459.329387,4634.321929 9458.311875,4647.563071 9501.017030,4653.954734 9500.402310,4664.594773"/>
    <poly id="138630428" type="leisure.park" color="207,245,201" fill="0" layer="-2.00" shape="7683.670626,4886.162281 7715.334849,4759.809874"/>
    <poly id="139309531" type="building.roof" color="255,230,230" fill="1" layer="-1.00" shape="1825.872037,2009.699175 1839.270461,2006.223999 1828.801281,1966.236659 1828.080909,1963.475109 1810.822918,1897.597690 1810.527571,1896.484090 1803.010153,1867.765794 1789.611910,1871.240912 1797.294481,1900.571741 1815.376553,1969.633782 1825.872037,2009.699175"/>
    <poly id="139469260" type="leisure.park" color="207,245,201" fill="0" layer="-2.00" shape="6333.657078,4144.102580 6286.304100,4135.322997"/>
    <poly id="139469263" type="leisure.park" color="207,245,201" fill="0" layer="-2.00" shape="6286.304100,4135.322997 6292.884633,4098.001595 6340.832401,4107.499494 6333.657078,4144.102580"/>
    <poly id="140023947" type="building.yes" color="255,230,230" fill="1" layer="-1.00" shape="5191.140134,4213.511318 5203.697486,4147.735022 5105.432890,4129.070361 5026.635845,4114.166273 5012.707957,4111.604259 5011.538294,4117.732747 5009.397387,4128.938778 5007.523673,4138.773167 5004.183363,4156.262553 5002.141098,4166.981926 5000.158435,4177.380469 5191.140134,4213.511318"/>
    <poly id="140048694" type="landuse.railway" color="194,194,130" fill="1" layer="-3.00" shape="5218.058505,4117.424888 5012.053376,4081.101693 5009.523399,4088.741474 5007.589682,4095.080876 4994.440088,4102.845969 4990.294442,4097.806110 4978.079024,4176.742749 5202.270812,4218.695270 5218.058505,4117.424888"/>
    <poly id="141895198" type="leisure.common" color="207,245,201" fill="0" layer="-2.00" shape="11985.298435,4252.752166 12018.842802,4226.696719 12074.413082,4183.524968 12079.361193,4179.687580 12083.744249,4176.275126 12147.532928,4126.725406"/>
    <poly id="141895201" type="leisure.common" color="207,245,201" fill="0" layer="-2.00" shape="12290.295805,4030.691868 12223.355501,4084.237399"/>
    <poly id="141895203" type="leisure.common" color="207,245,201" fill="0" layer="-2.00" shape="11993.316051,4263.276341 11913.372787,4324.785090 11898.339250,4336.017129"/>
    <poly id="141895206" type="leisure.common" color="207,245,201" fill="0" layer="-2.00" shape="12048.228589,4221.981477 11998.362672,4259.617802 11995.945837,4261.370870 11993.316051,4263.276341"/>
    <poly id="141895207" type="leisure.common" color="207,245,201" fill="0" layer="-2.00" shape="11821.010635,4354.090606 11833.484418,4355.147283 11840.689470,4353.925109 11845.766250,4350.755111 11849.091025,4347.638980 11852.673972,4345.092049 11873.695927,4332.432808"/>
    <poly id="141895210" type="leisure.common" color="207,245,201" fill="0" layer="-2.00" shape="12223.355501,4084.237399 12155.759346,4137.407554 12090.683201,4188.592616 12089.163422,4189.781069 12087.560088,4191.046035 12084.668705,4193.314026 12051.203396,4219.648074 12048.228589,4221.981477"/>
    <poly id="141895289" type="leisure.common" color="207,245,201" fill="0" layer="-2.00" shape="11898.339250,4336.017129 11880.431011,4350.304841 11869.332456,4367.502316 11853.214217,4385.685413"/>
    <poly id="142320049" type="building.transportation" color="255,230,230" fill="0" layer="-1.00" shape="3304.915911,2459.414046 3302.975539,2457.300496 3262.492603,2498.299343 3270.619088,2510.031186 3277.170857,2522.250435 3306.720352,2507.559866 3327.811271,2497.072655 3314.023464,2469.241063 3312.554073,2467.522586"/>
    <poly id="144844722" type="leisure.common" color="207,245,201" fill="0" layer="-2.00" shape="12216.387211,4074.759190 12282.468184,4020.347997"/>
    <poly id="147999136" type="building.yes" color="255,230,230" fill="1" layer="-1.00" shape="10892.213826,3063.452189 10930.039283,3072.211061 10967.243487,3080.817083 10969.482979,3071.241875 10993.344520,3076.759213 11002.420376,3037.872085 10979.271908,3032.508713 11004.326820,2925.223805 10956.138754,2914.060716 10947.199760,2952.317427 10919.664948,2945.939984 10892.213826,3063.452189"/>
    <poly id="147999136#1" type="shop.doityourself" color="237,199,255" fill="1" layer="-1.00" shape="10892.213826,3063.452189 10930.039283,3072.211061 10967.243487,3080.817083 10969.482979,3071.241875 10993.344520,3076.759213 11002.420376,3037.872085 10979.271908,3032.508713 11004.326820,2925.223805 10956.138754,2914.060716 10947.199760,2952.317427 10919.664948,2945.939984 10892.213826,3063.452189"/>
    <poly id="147999202" type="leisure.park" color="207,245,201" fill="1" layer="-2.00" shape="11267.108504,1988.362067 11297.310265,1872.284028 11349.659269,1891.854718 11299.397947,1996.766770 11267.108504,1988.362067"/>
    <poly id="147999203" type="leisure.park" color="207,245,201" fill="1" layer="-2.00" shape="11230.620833,2132.417448 11261.294130,2013.417613 11287.318098,2018.808524 11239.846626,2135.482783 11230.620833,2132.417448"/>
    <poly id="147999204" type="leisure.common" color="207,245,201" fill="1" layer="-2.00" shape="11005.460118,3521.144112 11025.420822,3522.370796 11056.785805,3374.674511 11050.334229,3374.475452 11005.460118,3521.144112"/>
    <poly id="147999205" type="leisure.park" color="207,245,201" fill="1" layer="-2.00" shape="11234.335784,2161.795872 11220.083701,2158.939235 11157.945604,2437.935551 11163.618152,2438.745088 11195.508884,2299.851610 11234.335784,2161.795872"/>
    <poly id="149498012" type="building.yes" color="255,230,230" fill="1" layer="-1.00" shape="12077.033300,4038.841786 12096.425153,4065.903000 12123.374255,4046.768078 12103.973202,4019.706797 12077.033300,4038.841786"/>
    <poly id="149503674" type="leisure.pitch" color="207,245,201" fill="1" layer="-2.00" shape="12207.058258,4590.714777 12255.142275,4593.361850 12256.864510,4562.294025 12208.780655,4559.646957 12207.058258,4590.714777"/>
    <poly id="149503674#1" type="sport.tennis" color="79,230,125" fill="1" layer="-2.00" shape="12207.058258,4590.714777 12255.142275,4593.361850 12256.864510,4562.294025 12208.780655,4559.646957 12207.058258,4590.714777"/>
    <poly id="149504050" type="building.yes" color="255,230,230" fill="1" layer="-1.00" shape="11959.754549,4576.639153 11959.532691,4582.182196 11961.988677,4582.282046 11961.747730,4588.556909 11986.079176,4589.496816 11991.001328,4463.124674 11979.051129,4462.663196 11974.600920,4577.206464 11959.754549,4576.639153"/>
    <poly id="149505424" type="building.yes" color="255,230,230" fill="1" layer="-1.00" shape="12051.477922,4678.531943 12084.019772,4725.914481 12116.920041,4703.510303 12106.830860,4688.831955 12087.331494,4702.100241 12076.091590,4685.731367 12092.759076,4674.388054 12083.695092,4661.198810 12078.068336,4665.027017 12075.919346,4661.892123 12051.477922,4678.531943"/>
    <poly id="149505425" type="building.yes" color="255,230,230" fill="1" layer="-1.00" shape="11978.596031,4641.661356 11980.912518,4614.173257 11976.875820,4609.604052 11961.884370,4608.912767 11960.161740,4640.612821 11978.596031,4641.661356"/>
    <poly id="149505643" type="leisure.pitch" color="207,245,201" fill="1" layer="-2.00" shape="11698.056932,4560.442403 11754.124784,4566.639113 11755.640063,4552.960932 11699.572294,4546.764228 11698.056932,4560.442403"/>
    <poly id="149505644" type="building.yes" color="255,230,230" fill="1" layer="-1.00" shape="11899.785169,4519.400369 11964.238839,4520.462992 11964.417743,4509.972288 11899.954980,4508.909540 11899.785169,4519.400369"/>
    <poly id="149764365" type="leisure.pitch" color="207,245,201" fill="1" layer="-2.00" shape="9183.457740,2088.433501 9279.109259,2138.377126 9311.862532,2076.192901 9216.220679,2026.249724 9183.457740,2088.433501"/>
    <poly id="149764365#1" type="sport.soccer" color="79,230,125" fill="1" layer="-2.00" shape="9183.457740,2088.433501 9279.109259,2138.377126 9311.862532,2076.192901 9216.220679,2026.249724 9183.457740,2088.433501"/>
    <poly id="149764367" type="natural.water" color="181,209,209" fill="1" layer="-4.00" shape="10014.684167,1754.811879 10009.545774,1757.846894 10005.234944,1762.024721 10002.466362,1768.697374 10001.114494,1775.666859 10000.513059,1783.389867 10001.895190,1790.851815 10003.973102,1796.382209 10007.096883,1800.518301 10011.325039,1803.005774 10016.275693,1804.948589 10019.404116,1802.096624 10022.555753,1799.555561 10026.689540,1798.248178 10031.461185,1798.546866 10036.939887,1800.086533 10037.931368,1799.312645 10041.062225,1796.948765 10043.657100,1792.902571 10045.737224,1787.629136 10047.232939,1782.192359 10047.318805,1777.290769 10047.715960,1773.746722 10049.333703,1771.428546 10054.087466,1771.028165 10061.342443,1770.717700 10063.469891,1769.992735 10065.708387,1768.526119 10068.300186,1766.032790 10070.286040,1763.608759 10071.239481,1762.934174 10071.709786,1762.729900 10072.092264,1761.581575 10070.824015,1761.819226 10069.369719,1762.919510 10065.547550,1766.893343 10063.564903,1768.418945 10062.035762,1768.963584 10054.718772,1769.117904 10050.951293,1769.121460 10045.711493,1769.537328 10042.886619,1767.657094 10039.950702,1765.187440 10036.458338,1761.856014 10033.386028,1758.641298 10029.274278,1756.355099 10022.273034,1754.883183 10014.684167,1754.811879"/>
    <poly id="149764371" type="leisure.pitch" color="207,245,201" fill="1" layer="-2.00" shape="9772.619249,1769.142724 9815.579284,1773.374050 9818.635723,1742.535388 9775.684997,1738.304199 9772.619249,1769.142724"/>
    <poly id="149783710" type="building.yes" color="255,230,230" fill="1" layer="-1.00" shape="11979.302994,1705.774081 12131.914520,1800.363115 12174.104728,1732.906682 12021.494103,1638.307226 11979.302994,1705.774081"/>
    <poly id="151006267" type="building.yes" color="255,230,230" fill="1" layer="-1.00" shape="12262.787201,2116.985890 12277.507174,2152.336082 12287.969868,2148.018648 12273.240548,2112.679439 12262.787201,2116.985890"/>
    <poly id="151006273" type="landuse.industrial" color="209,209,204" fill="1" layer="-3.00" shape="11576.898632,2577.462332 11653.196397,2591.012248 11666.936379,2514.286125 11670.134344,2496.859474 11641.767428,2491.748423 11593.774394,2483.220082 11576.898632,2577.462332"/>
    <poly id="151065963" type="building.yes" color="255,230,230" fill="1" layer="-1.00" shape="12233.553771,2085.898211 12245.003132,2102.813430 12253.060485,2097.409720 12241.620282,2080.494635 12233.553771,2085.898211"/>
    <poly id="151068037" type="building.yes" color="255,230,230" fill="1" layer="-1.00" shape="12197.675218,2027.699997 12208.141504,2039.355376 12211.741663,2036.143043 12201.275227,2024.498758 12197.675218,2027.699997"/>
    <poly id="151068039" type="building.yes" color="255,230,230" fill="1" layer="-1.00" shape="11395.826002,1948.721465 11439.765871,1954.455972 11443.512787,1931.745888 11421.235845,1921.814315 11415.143529,1935.685241 11404.719214,1931.117387 11395.826002,1948.721465"/>
    <poly id="151068040" type="landuse.residential" color="235,235,227" fill="1" layer="-3.00" shape="11559.113504,2073.081597 11650.495288,2094.058036 11666.430826,2016.274719 11573.364737,1993.833498 11559.113504,2073.081597"/>
    <poly id="151068041" type="landuse.industrial" color="209,209,204" fill="1" layer="-3.00" shape="11865.495142,2143.079049 11857.627995,2201.283639 11939.980964,2214.248005 11943.662540,2198.968623 11955.665986,2200.018878 11957.537348,2191.813900 12032.659255,2199.931883 12032.536537,2208.981404 12079.034036,2222.256859 12074.530585,2267.074593 12297.805064,2299.137751 12260.611699,2161.901746 12239.740641,2123.184979 12212.795288,2079.505364 12169.027393,2043.417737 12135.252807,1995.729825 12127.247953,1987.790302 11994.173126,1901.541490 11821.966117,1797.300053 11759.806160,1761.060298 11711.415331,1739.593534 11692.011963,1738.109537 11600.106646,1716.793463 11590.833960,1747.503489 11595.441389,1752.457844 11572.417448,1800.118089 11566.018049,1818.388516 11535.153603,1810.381263 11508.820897,1866.060320 11484.613049,1946.747823 11563.721180,1969.610046 11559.998750,1989.869130 11573.364737,1993.833498 11666.430826,2016.274719 11768.550978,2042.309878 11876.580549,2067.936069 11946.972626,2086.095516 11939.126860,2152.896859 11865.495142,2143.079049"/>
    <poly id="151068052" type="landuse.residential" color="235,235,227" fill="1" layer="-3.00" shape="12006.057090,2258.059953 12074.530585,2267.074593 12079.034036,2222.256859 12032.536537,2208.981404 12032.659255,2199.931883 11957.537348,2191.813900 11955.665986,2200.018878 11943.662540,2198.968623 11939.980964,2214.248005 11857.627995,2201.283639 11852.950862,2235.860901 12006.057090,2258.059953"/>
    <poly id="151068057" type="landuse.recreation_ground" color="194,194,130" fill="1" layer="-3.00" shape="11469.183783,1870.179132 11510.339215,1770.056068 11487.132943,1761.753623 11469.183783,1870.179132"/>
    <poly id="151068062" type="landuse.residential" color="235,235,227" fill="1" layer="-3.00" shape="11575.251380,1711.119822 11535.153603,1810.381263 11566.018049,1818.388516 11572.417448,1800.118089 11595.441389,1752.457844 11590.833960,1747.503489 11600.106646,1716.793463 11575.251380,1711.119822"/>
    <poly id="151068070" type="landuse.residential" color="235,235,227" fill="1" layer="-3.00" shape="11753.986629,2117.738248 11650.495288,2094.058036 11632.959355,2174.914267 11739.293763,2203.280894 11753.986629,2117.738248"/>
    <poly id="151068073" type="landuse.residential" color="235,235,227" fill="1" layer="-3.00" shape="11939.126860,2152.896859 11946.972626,2086.095516 11876.580549,2067.936069 11865.495142,2143.079049 11939.126860,2152.896859"/>
    <poly id="151068074" type="landuse.residential" color="235,235,227" fill="1" layer="-3.00" shape="11753.986629,2117.738248 11865.495142,2143.079049 11876.580549,2067.936069 11768.550978,2042.309878 11753.986629,2117.738248"/>
    <poly id="151068075" type="landuse.residential" color="235,235,227" fill="1" layer="-3.00" shape="11476.938611,1968.428308 11559.998750,1989.869130 11563.721180,1969.610046 11484.613049,1946.747823 11476.938611,1968.428308"/>
    <poly id="158848026" type="building.yes" color="255,230,230" fill="1" layer="-1.00" shape="10425.966065,2976.255336 10425.324288,2996.955674 10452.366810,2997.781737 10452.295738,3000.287599 10466.343970,3000.713380 10466.461107,2996.854901 10492.944655,2997.662080 10493.506358,2979.445299 10482.592152,2979.118033 10482.373905,2986.336063 10467.161924,2985.872146 10467.524024,2974.185933 10452.339561,2973.722369 10451.991784,2985.031644 10438.072051,2984.596512 10438.318866,2976.635697 10425.966065,2976.255336"/>
    <poly id="158848317" type="building.yes" color="255,230,230" fill="1" layer="-1.00" shape="10252.402629,2869.648028 10251.002324,2916.815065 10343.603835,2919.529884 10344.974362,2873.161084 10328.626000,2872.681317 10327.544866,2909.326225 10305.056670,2908.662213 10305.191578,2904.182813 10291.079177,2903.766990 10290.974637,2907.370523 10266.470257,2906.656519 10267.550567,2870.089242 10252.402629,2869.648028"/>
    <poly id="158848319" type="amenity.parking" color="184,184,179" fill="1" layer="-1.00" shape="10398.430719,3033.345934 10401.295513,3010.324579 10377.074978,3000.940670 10336.274780,2999.892082 10322.480669,3001.654761 10322.329334,3012.667247 10398.430719,3033.345934"/>