<?xml version="1.0" encoding="UTF-8"?>

<!-- generated on Thu Aug 20 13:37:11 2020 by Eclipse SUMO polyconvert Version 1.6.0
<configuration xmlns:xsi="http://www.w3.org/2001/XMLSchema-instance" xsi:noNamespaceSchemaLocation="http://sumo.dlr.de/xsd/polyconvertConfiguration.xsd">

    <input>
        <net-file value="osm.net.xml"/>
        <osm-files value="osm_bbox.osm.xml"/>
        <osm.keep-full-type value="true"/>
        <type-file value="/usr/share/sumo/data/typemap/osmPolyconvert.typ.xml"/>
    </input>

    <output>
        <output-file value="osm.poly.xml"/>
    </output>

    <processing>
        <poi-layer-offset value="5"/>
    </processing>

    <report>
        <verbose value="true"/>
    </report>

</configuration>
-->

<additional xmlns:xsi="http://www.w3.org/2001/XMLSchema-instance" xsi:noNamespaceSchemaLocation="http://sumo.dlr.de/xsd/additional_file.xsd">
    <location netOffset="-365960.82,3834676.00" convBoundary="-0.00,0.00,11145.15,4643.60" origBoundary="-58.462555,-34.645246,-58.340622,-34.603686" projParameter="+proj=utm +zone=21 +ellps=WGS84 +datum=WGS84 +units=m +no_defs"/>

    <poly id="136792905" type="leisure.park" color="207,245,201" fill="1" layer="-2.00" shape="5958.473983,2385.865634 5961.733686,2367.009627 6063.346825,2399.586444 5958.473983,2385.865634"/>
    <poly id="136792906" type="leisure.park" color="207,245,201" fill="1" layer="-2.00" shape="5394.556012,2168.455894 5395.616411,2160.783709 5427.221233,2166.814117 5426.504010,2170.253832 5422.169850,2172.023737 5416.590709,2172.988761 5394.556012,2168.455894"/>
    <poly id="136792909" type="leisure.park" color="207,245,201" fill="1" layer="-2.00" shape="6138.821600,2447.185349 6140.379376,2436.658194 6169.942246,2444.565606 6168.539934,2451.811615 6138.821600,2447.185349"/>
    <poly id="136792933" type="leisure.park" color="207,245,201" fill="1" layer="-2.00" shape="5667.229170,2292.587579 5667.731256,2273.604605 5678.401496,2276.448234 5677.671784,2295.317123 5667.229170,2292.587579"/>
    <poly id="203492456" type="amenity.community_centre" color="237,199,199" fill="1" layer="-1.00" shape="5515.852579,2518.773536 5521.250924,2487.302208 5523.349691,2476.827019 5548.801212,2480.342188 5537.863525,2545.523543 5521.907798,2543.593482 5525.909836,2520.876716 5515.852579,2518.773536"/>
    <poly id="203492456#1" type="building.yes" color="255,230,230" fill="1" layer="-1.00" shape="5515.852579,2518.773536 5521.250924,2487.302208 5523.349691,2476.827019 5548.801212,2480.342188 5537.863525,2545.523543 5521.907798,2543.593482 5525.909836,2520.876716 5515.852579,2518.773536"/>
    <poly id="210418978" type="amenity.place_of_worship" color="237,199,199" fill="1" layer="-1.00" shape="5493.239869,2380.371450 5456.581920,2373.683110 5455.311873,2380.609200 5445.882104,2378.891804 5447.429529,2370.483210 5438.383885,2368.837704 5439.841863,2360.927019 5449.335632,2362.656405 5450.843296,2354.469103 5459.276085,2356.006241 5457.619342,2365.023390 5494.816913,2371.807971 5493.239869,2380.371450"/>
    <poly id="210420176" type="building.commercial" color="255,230,230" fill="1" layer="-1.00" shape="5442.796175,2436.584123 5451.209778,2438.187551 5459.175527,2396.846573 5450.771129,2395.243279 5442.796175,2436.584123"/>
    <poly id="210425395" type="building.yes" color="255,230,230" fill="1" layer="-1.00" shape="5261.606646,2406.363830 5302.140019,2412.629958 5306.590369,2384.096062 5311.156065,2384.803009 5316.351975,2351.454352 5344.359216,2355.782159 5350.079118,2319.035456 5235.251018,2301.285431 5233.579426,2312.010554 5220.019665,2309.913684 5218.529302,2319.476641 5232.784423,2321.683035 5227.105204,2358.108576 5268.141639,2364.448429 5261.606646,2406.363830"/>
    <poly id="210425395#1" type="shop.supermarket" color="237,199,255" fill="1" layer="-1.00" shape="5261.606646,2406.363830 5302.140019,2412.629958 5306.590369,2384.096062 5311.156065,2384.803009 5316.351975,2351.454352 5344.359216,2355.782159 5350.079118,2319.035456 5235.251018,2301.285431 5233.579426,2312.010554 5220.019665,2309.913684 5218.529302,2319.476641 5232.784423,2321.683035 5227.105204,2358.108576 5268.141639,2364.448429 5261.606646,2406.363830"/>
    <poly id="23651753" type="amenity.studio" color="237,199,199" fill="1" layer="-1.00" shape="5700.658979,2189.694216 5705.619475,2080.093932 5810.107347,2100.146116 5796.800915,2208.654470 5700.658979,2189.694216"/>
    <poly id="23651753#1" type="building.industrial" color="255,230,230" fill="1" layer="-1.00" shape="5700.658979,2189.694216 5705.619475,2080.093932 5810.107347,2100.146116 5796.800915,2208.654470 5700.658979,2189.694216"/>
    <poly id="242363655" type="leisure.park" color="207,245,201" fill="1" layer="-2.00" shape="5840.478545,2368.944509 5845.683105,2340.121395 5894.341870,2351.577877 5889.320243,2376.476893 5840.478545,2368.944509"/>
    <poly id="418269151" type="landuse.residential" color="235,235,227" fill="1" layer="-3.00" shape="5916.534967,3043.287022 5387.227234,2994.727865 5451.004384,2756.133372 5512.471689,2475.721816 6038.267695,2551.923772 5931.148811,2934.341983 5916.534967,3043.287022"/>
    <poly id="418269835" type="landuse.residential" color="235,235,227" fill="1" layer="-3.00" shape="4557.733273,2783.850644 4564.602494,2662.020211 4596.798903,2540.788535 4656.256736,2439.771491 4741.344229,2352.345833 4756.858159,2351.087590 5485.721545,2471.301102 5429.488799,2738.574466 5359.237254,2991.653943 4855.277872,2855.943129 4713.815387,2817.793018 4557.733273,2783.850644"/>
    <poly id="418269837" type="landuse.residential" color="235,235,227" fill="1" layer="-3.00" shape="5492.846419,2445.577408 4760.862035,2328.371096 4886.937732,2194.774503 4895.554272,2196.270364 4890.519036,2244.917380 5062.736161,2269.939655 5071.998175,2180.509755 5149.513307,2191.141649 5150.463677,2184.799023 5467.750718,2235.240593 5469.844388,2226.451366 5534.936986,2240.955838 5492.846419,2445.577408"/>
    <poly id="418269841" type="landuse.residential" color="235,235,227" fill="1" layer="-3.00" shape="6068.839872,2418.086710 6173.550977,2452.147158 6293.038727,2472.656283 6493.226090,2509.207988 6488.736063,2595.365789 6038.267695,2551.923772 6068.839872,2418.086710"/>
    <poly id="418269844" type="landuse.residential" color="235,235,227" fill="1" layer="-3.00" shape="5557.605074,2246.772776 5676.419783,2280.491568 5675.334302,2298.567965 5900.201386,2352.879268 5958.062600,2365.927173 6072.675859,2401.301810 6068.839872,2418.086710 6038.267695,2551.923772 5517.739678,2450.327236 5557.605074,2246.772776"/>
    <poly id="460836432" type="amenity.community_centre" color="237,199,199" fill="1" layer="-1.00" shape="6094.693931,2319.002770 6121.510824,2322.557461 6119.331562,2338.899436 6092.514469,2335.355830 6094.693931,2319.002770"/>
    <poly id="460836432#1" type="building.yes" color="255,230,230" fill="1" layer="-1.00" shape="6094.693931,2319.002770 6121.510824,2322.557461 6119.331562,2338.899436 6092.514469,2335.355830 6094.693931,2319.002770"/>
    <poly id="460836434" type="building.residential" color="255,230,230" fill="1" layer="-1.00" shape="5950.995479,2230.126713 5943.236986,2228.898859 5941.449763,2240.088347 5946.921006,2240.951732 5949.501176,2239.368026 5950.995479,2230.126713"/>
    <poly id="460836435" type="building.commercial" color="255,230,230" fill="1" layer="-1.00" shape="5960.505614,2163.849246 5924.439851,2157.481526 5921.705565,2172.828567 5957.771387,2179.196296 5960.505614,2163.849246"/>
    <poly id="461502104" type="building.roof" color="255,230,230" fill="1" layer="-1.00" shape="5693.652820,2309.260198 5702.950233,2303.998476 5698.418244,2294.263092 5698.765331,2286.436779 5690.444200,2284.124951 5688.637650,2298.663996 5693.652820,2309.260198"/>
    <poly id="475565305" type="building.commercial" color="255,230,230" fill="1" layer="-1.00" shape="5341.969719,2422.679666 5344.866491,2407.590142 5354.011460,2409.348044 5350.913169,2424.423672 5341.969719,2422.679666"/>
    <poly id="475565306" type="amenity.bank" color="237,199,199" fill="1" layer="-1.00" shape="5350.913169,2424.423672 5360.486412,2426.376099 5367.214603,2393.603371 5357.650406,2391.662167 5354.011460,2409.348044 5350.913169,2424.423672"/>
    <poly id="475565306#1" type="building.yes" color="255,230,230" fill="1" layer="-1.00" shape="5350.913169,2424.423672 5360.486412,2426.376099 5367.214603,2393.603371 5357.650406,2391.662167 5354.011460,2409.348044 5350.913169,2424.423672"/>
    <poly id="475565307" type="amenity.fuel" color="237,199,199" fill="1" layer="-1.00" shape="5366.742017,2426.230257 5368.522937,2412.911048 5376.330148,2413.940397 5374.549084,2427.270697 5366.742017,2426.230257"/>
    <poly id="475565307#1" type="building.roof" color="255,230,230" fill="1" layer="-1.00" shape="5366.742017,2426.230257 5368.522937,2412.911048 5376.330148,2413.940397 5374.549084,2427.270697 5366.742017,2426.230257"/>
    <poly id="475565612" type="building.commercial" color="255,230,230" fill="1" layer="-1.00" shape="5541.285082,2454.414905 5545.072110,2431.329097 5553.013165,2432.626371 5549.226157,2455.712182 5541.285082,2454.414905"/>
    <poly id="475565613" type="building.commercial" color="255,230,230" fill="1" layer="-1.00" shape="5560.130871,2456.873175 5574.697041,2459.149906 5576.458864,2458.397936 5577.013714,2456.741809 5578.391165,2446.700275 5561.844175,2444.440382 5560.130871,2456.873175"/>
    <poly id="475565614" type="building.yes" color="255,230,230" fill="1" layer="-1.00" shape="5604.868042,2465.503585 5594.533717,2464.206374 5597.365552,2441.883734 5607.690685,2443.180815 5604.868042,2465.503585"/>
    <poly id="475565614#1" type="shop.supermarket" color="237,199,255" fill="1" layer="-1.00" shape="5604.868042,2465.503585 5594.533717,2464.206374 5597.365552,2441.883734 5607.690685,2443.180815 5604.868042,2465.503585"/>
    <poly id="475565998" type="building.apartments" color="255,230,230" fill="1" layer="-1.00" shape="5705.350059,2483.792889 5710.049539,2453.077138 5739.504028,2457.545836 5734.804645,2488.261598 5705.350059,2483.792889"/>
    <poly id="475565999" type="amenity.pharmacy" color="237,199,199" fill="1" layer="-1.00" shape="5794.514693,2495.656931 5795.742019,2487.166206 5803.667120,2488.296656 5802.448970,2496.787509 5794.514693,2495.656931"/>
    <poly id="475565999#1" type="building.yes" color="255,230,230" fill="1" layer="-1.00" shape="5794.514693,2495.656931 5795.742019,2487.166206 5803.667120,2488.296656 5802.448970,2496.787509 5794.514693,2495.656931"/>
    <poly id="476769745" type="amenity.pharmacy" color="237,199,199" fill="1" layer="-1.00" shape="5472.528210,2478.438477 5474.431181,2468.859047 5481.819883,2470.315081 5485.415003,2476.199619 5484.507554,2480.790287 5472.528210,2478.438477"/>
    <poly id="476769745#1" type="building.yes" color="255,230,230" fill="1" layer="-1.00" shape="5472.528210,2478.438477 5474.431181,2468.859047 5481.819883,2470.315081 5485.415003,2476.199619 5484.507554,2480.790287 5472.528210,2478.438477"/>
    <poly id="476769746" type="building.commercial" color="255,230,230" fill="1" layer="-1.00" shape="5521.250924,2487.302208 5515.288824,2486.121166 5517.387597,2475.645978 5523.349691,2476.827019 5521.250924,2487.302208"/>
    <poly id="476769747" type="building.commercial" color="255,230,230" fill="1" layer="-1.00" shape="5555.280596,2514.230385 5559.584298,2482.998945 5566.356861,2483.925009 5562.053182,2515.156452 5555.280596,2514.230385"/>
    <poly id="518453222" type="building.commercial" color="255,230,230" fill="1" layer="-1.00" shape="6047.379921,2178.008604 6061.876743,2179.307504 6066.998156,2137.893446 6053.249486,2136.205592 6047.379921,2178.008604"/>
    <poly id="578585954" type="building.yes" color="255,230,230" fill="1" layer="-1.00" shape="5813.493053,2189.851784 5830.818026,2192.843034 5827.446214,2218.441542 5814.957857,2216.449146 5811.061679,2211.769617 5813.493053,2189.851784"/>
    <poly id="578585954#1" type="shop.car_repair" color="237,199,255" fill="1" layer="-1.00" shape="5813.493053,2189.851784 5830.818026,2192.843034 5827.446214,2218.441542 5814.957857,2216.449146 5811.061679,2211.769617 5813.493053,2189.851784"/>
    <poly id="723808978" type="landuse.residential" color="235,235,227" fill="1" layer="-3.00" shape="5949.773493,2318.293121 6380.382906,2445.067741 6472.811816,2448.307293 6501.505460,2115.249094 5996.969211,2000.555349 5843.008802,1965.121804 5615.761437,1930.386707 5565.684922,2207.074963 5679.847438,2239.020851 5841.566838,2281.896540 5949.773493,2318.293121"/>
    <poly id="732951244" type="building.yes" color="255,230,230" fill="1" layer="-1.00" shape="5404.661441,2431.893830 5416.298513,2433.797277 5421.304130,2401.577343 5413.389168,2399.725704 5414.150025,2395.787445 5399.253117,2392.906868 5396.993647,2404.378103 5409.207842,2406.977315 5404.661441,2431.893830"/>
    <poly id="773030556" type="landuse.residential" color="235,235,227" fill="1" layer="-3.00" shape="5243.035027,1878.323101 5243.328255,1880.967152 5320.403085,2000.706367 5371.448431,2008.516317 5346.492251,2158.491363 5394.556012,2168.455894 5395.616411,2160.783709 5427.221233,2166.814117 5443.721617,2169.750254 5441.611635,2180.369474 5541.998331,2201.975969 5591.578726,1927.388444 5248.363732,1875.579932 5243.035027,1878.323101"/>
    <poi id="1500798596" type="leisure.sports_centre" color="207,245,201" layer="3.00" x="6011.07" y="2327.08"/>
    <poi id="1500798596#1" type="sport.tennis" color="79,230,125" layer="3.00" x="6011.07" y="2327.08"/>
    <poi id="1500798670" type="amenity.parking" color="184,184,179" layer="4.00" x="6082.55" y="2382.52"/>
    <poi id="1500798696" type="amenity.parking" color="184,184,179" layer="4.00" x="5691.59" y="2264.55"/>
    <poi id="2225539595" type="amenity.ice_cream" color="237,199,199" layer="4.00" x="5347.07" y="2421.16"/>
    <poi id="2285374763" type="amenity.library" color="237,199,199" layer="4.00" x="6065.76" y="2347.38"/>
    <poi id="3957607348" type="amenity.restaurant" color="237,199,199" layer="4.00" x="5574.68" y="2457.03"/>
    <poi id="4564365537" type="shop.art" color="237,199,255" layer="4.00" x="5948.19" y="2238.66"/>
    <poi id="4564365542" type="shop.car_repair" color="237,199,255" layer="4.00" x="5958.47" y="2166.19"/>
    <poi id="4615826889" type="shop.hardware" color="237,199,255" layer="4.00" x="5585.52" y="2128.74"/>
    <poi id="4693057279" type="leisure.fitness_centre" color="207,245,201" layer="3.00" x="5447.63" y="2435.74"/>
    <poi id="4693059202" type="shop.supermarket" color="237,199,255" layer="4.00" x="5490.69" y="2441.37"/>
    <poi id="4693060934" type="amenity.bank" color="237,199,199" layer="4.00" x="5545.52" y="2452.93"/>
    <poi id="4693064009" type="amenity.ice_cream" color="237,199,199" layer="4.00" x="5712.61" y="2482.52"/>
    <poi id="4693064010" type="shop.hardware" color="237,199,255" layer="4.00" x="5725.97" y="2485.78"/>
    <poi id="4702530769" type="amenity.restaurant" color="237,199,199" layer="4.00" x="5519.83" y="2477.87"/>
    <poi id="5116459584" type="man_made.mast" color="255,230,230" layer="4.00" x="5571.59" y="2212.17"/>
    <poi id="5117576626" type="amenity.school" color="237,199,199" layer="4.00" x="5824.61" y="2133.67"/>
    <poi id="5117619831" type="amenity.school" color="237,199,199" layer="4.00" x="5498.07" y="2387.88"/>
    <poi id="573408921" type="amenity.police" color="237,199,199" layer="4.00" x="5419.03" y="2200.85"/>
    <poi id="6693597118" type="amenity.community_centre" color="237,199,199" layer="4.00" x="5484.08" y="2385.80"/>
    <poi id="7167202023" type="leisure.fitness_station" color="207,245,201" layer="3.00" x="5416.33" y="2166.50"/>
    <poi id="7167209838" type="shop.houseware" color="237,199,255" layer="4.00" x="5429.74" y="2265.96"/>
    <poi id="7503921227" type="amenity.clinic" color="237,199,199" layer="4.00" x="5499.22" y="2283.93"/>
</additional>
