<?xml version="1.0" encoding="UTF-8"?>

<!-- generated on Thu Aug 20 13:37:11 2020 by Eclipse SUMO duarouter Version 1.6.0
<configuration xmlns:xsi="http://www.w3.org/2001/XMLSchema-instance" xsi:noNamespaceSchemaLocation="http://sumo.dlr.de/xsd/duarouterConfiguration.xsd">

    <input>
        <net-file value="/home/fede/sumo-1.6.0/tools/2020-08-20-13-37-02/osm.net.xml"/>
        <route-files value="/home/fede/sumo-1.6.0/tools/2020-08-20-13-37-02/osm.passenger.trips.xml"/>
    </input>

    <output>
        <output-file value="/home/fede/sumo-1.6.0/tools/2020-08-20-13-37-02/osm.passenger.trips.xml.tmp"/>
        <write-trips value="true"/>
    </output>

    <time>
        <begin value="0"/>
        <end value="3600.0"/>
    </time>

    <report>
        <no-warnings value="true"/>
        <ignore-errors value="true"/>
        <no-step-log value="true"/>
    </report>

</configuration>
-->

<routes xmlns:xsi="http://www.w3.org/2001/XMLSchema-instance" xsi:noNamespaceSchemaLocation="http://sumo.dlr.de/xsd/routes_file.xsd">
    <vType id="veh_passenger" vClass="passenger"/>
    <trip id="veh1" type="veh_passenger" depart="3.76" departLane="best" from="240742548#1" to="222380082#1"/>
    <trip id="veh2" type="veh_passenger" depart="7.53" departLane="best" from="532250936" to="48397504#3"/>
    <trip id="veh3" type="veh_passenger" depart="11.29" departLane="best" departSpeed="max" from="686011045" to="10065678#0"/>
    <trip id="veh5" type="veh_passenger" depart="18.81" departLane="best" departSpeed="max" from="222380082#0" to="28832849"/>
    <trip id="veh6" type="veh_passenger" depart="22.58" departLane="best" departSpeed="max" from="48447106#0" to="335801166#1"/>
    <trip id="veh10" type="veh_passenger" depart="37.63" departLane="best" departSpeed="max" from="686011045" to="253046616#0"/>
    <trip id="veh11" type="veh_passenger" depart="41.39" departLane="best" from="21840334#1" to="10065678#0"/>
    <trip id="veh12" type="veh_passenger" depart="45.16" departLane="best" departSpeed="max" from="686011045" to="335801181#0"/>
    <trip id="veh13" type="veh_passenger" depart="48.92" departLane="best" departSpeed="max" from="47413568#0" to="793117380"/>
    <trip id="veh14" type="veh_passenger" depart="52.68" departLane="best" departSpeed="max" from="273892889" to="335801166#1"/>
    <trip id="veh15" type="veh_passenger" depart="56.44" departLane="best" departSpeed="max" from="647946360" to="335801181#2"/>
    <trip id="veh16" type="veh_passenger" depart="60.21" departLane="best" departSpeed="max" from="686011045" to="335801171#2"/>
    <trip id="veh18" type="veh_passenger" depart="67.73" departLane="best" departSpeed="max" from="21840334#0" to="23054572"/>
    <trip id="veh20" type="veh_passenger" depart="75.26" departLane="best" departSpeed="max" from="273892889" to="21840334#4"/>
    <trip id="veh21" type="veh_passenger" depart="79.02" departLane="best" from="240742548#0" to="793117380"/>
    <trip id="veh22" type="veh_passenger" depart="82.78" departLane="best" departSpeed="max" from="48447106#0" to="335801181#2"/>
    <trip id="veh25" type="veh_passenger" depart="94.07" departLane="best" departSpeed="max" from="47413568#0" to="48397535#0"/>
    <trip id="veh26" type="veh_passenger" depart="97.84" departLane="best" departSpeed="max" from="686011045" to="532250931"/>
    <trip id="veh28" type="veh_passenger" depart="105.36" departLane="best" departSpeed="max" from="273892889" to="240588974"/>
    <trip id="veh29" type="veh_passenger" depart="109.13" departLane="best" departSpeed="max" from="222380082#0" to="793117380"/>
    <trip id="veh30" type="veh_passenger" depart="112.89" departLane="best" departSpeed="max" from="686011045" to="240742548#2"/>
    <trip id="veh31" type="veh_passenger" depart="116.65" departLane="best" departSpeed="max" from="48486471" to="274881391"/>
    <trip id="veh32" type="veh_passenger" depart="120.41" departLane="best" departSpeed="max" from="686011045" to="274881391"/>
    <trip id="veh33" type="veh_passenger" depart="124.18" departLane="best" from="240588973" to="23054572"/>
    <trip id="veh34" type="veh_passenger" depart="127.94" departLane="best" departSpeed="max" from="47413568#0" to="793117380"/>
    <trip id="veh35" type="veh_passenger" depart="131.70" departLane="best" departSpeed="max" from="335801174#0" to="222380082#1"/>
    <trip id="veh36" type="veh_passenger" depart="135.47" departLane="best" from="9937626" to="28832849"/>
    <trip id="veh40" type="veh_passenger" depart="150.52" departLane="best" from="693104619" to="28832866"/>
    <trip id="veh41" type="veh_passenger" depart="154.28" departLane="best" departSpeed="max" from="686011045" to="647946359"/>
    <trip id="veh42" type="veh_passenger" depart="158.04" departLane="best" departSpeed="max" from="19782153" to="532250931"/>
    <trip id="veh43" type="veh_passenger" depart="161.81" departLane="best" departSpeed="max" from="48486471" to="335801166#1"/>
    <trip id="veh44" type="veh_passenger" depart="165.57" departLane="best" departSpeed="max" from="47413568#0" to="793117380"/>
    <trip id="veh45" type="veh_passenger" depart="169.33" departLane="best" departSpeed="max" from="686011045" to="240588973"/>
    <trip id="veh46" type="veh_passenger" depart="173.10" departLane="best" departSpeed="max" from="47413568#0" to="19782162#5"/>
    <trip id="veh47" type="veh_passenger" depart="176.86" departLane="best" from="273830331" to="335801181#2"/>
    <trip id="veh48" type="veh_passenger" depart="180.62" departLane="best" departSpeed="max" from="647946358" to="335801166#1"/>
    <trip id="veh49" type="veh_passenger" depart="184.38" departLane="best" departSpeed="max" from="647946358" to="335801166#0"/>
    <trip id="veh50" type="veh_passenger" depart="188.15" departLane="best" from="10065783#0" to="253046616#0"/>
    <trip id="veh51" type="veh_passenger" depart="191.91" departLane="best" departSpeed="max" from="19782153" to="793117380"/>
    <trip id="veh52" type="veh_passenger" depart="195.67" departLane="best" departSpeed="max" from="686011045" to="532250931"/>
    <trip id="veh54" type="veh_passenger" depart="203.20" departLane="best" departSpeed="max" from="21840334#0" to="532250931"/>
    <trip id="veh55" type="veh_passenger" depart="206.96" departLane="best" departSpeed="max" from="647946358" to="10065783#1"/>
    <trip id="veh56" type="veh_passenger" depart="210.72" departLane="best" departSpeed="max" from="47413568#0" to="335801166#1"/>
    <trip id="veh57" type="veh_passenger" depart="214.49" departLane="best" from="240588973" to="793117380"/>
    <trip id="veh58" type="veh_passenger" depart="218.25" departLane="best" departSpeed="max" from="335801174#0" to="21840334#4"/>
    <trip id="veh59" type="veh_passenger" depart="222.01" departLane="best" departSpeed="max" from="47413568#0" to="532250931"/>
    <trip id="veh61" type="veh_passenger" depart="229.54" departLane="best" from="457774116" to="28832849"/>
    <trip id="veh62" type="veh_passenger" depart="233.30" departLane="best" departSpeed="max" from="222380082#0" to="222380082#1"/>
    <trip id="veh63" type="veh_passenger" depart="237.07" departLane="best" departSpeed="max" from="273892889" to="335801171#2"/>
    <trip id="veh64" type="veh_passenger" depart="240.83" departLane="best" departSpeed="max" from="222380082#0" to="222380082#1"/>
    <trip id="veh65" type="veh_passenger" depart="244.59" departLane="best" departSpeed="max" from="21840334#0" to="335801181#2"/>
    <trip id="veh66" type="veh_passenger" depart="248.35" departLane="best" departSpeed="max" from="222380082#0" to="793117380"/>
    <trip id="veh67" type="veh_passenger" depart="252.12" departLane="best" departSpeed="max" from="686011045" to="10065678#0"/>
    <trip id="veh70" type="veh_passenger" depart="263.41" departLane="best" departSpeed="max" from="686011045" to="335801171#2"/>
    <trip id="veh71" type="veh_passenger" depart="267.17" departLane="best" departSpeed="max" from="47413568#0" to="532250931"/>
    <trip id="veh72" type="veh_passenger" depart="270.93" departLane="best" departSpeed="max" from="647946360" to="21840334#4"/>
    <trip id="veh75" type="veh_passenger" depart="282.22" departLane="best" departSpeed="max" from="686011045" to="10065678#0"/>
    <trip id="veh76" type="veh_passenger" depart="285.98" departLane="best" departSpeed="max" from="335801174#0" to="253046616#0"/>
    <trip id="veh77" type="veh_passenger" depart="289.75" departLane="best" departSpeed="max" from="686011045" to="23054572"/>
    <trip id="veh78" type="veh_passenger" depart="293.51" departLane="best" departSpeed="max" from="335801174#0" to="240588974"/>
    <trip id="veh79" type="veh_passenger" depart="297.27" departLane="best" departSpeed="max" from="222380082#0" to="793117380"/>
    <trip id="veh80" type="veh_passenger" depart="301.04" departLane="best" departSpeed="max" from="47413568#0" to="647946359"/>
    <trip id="veh81" type="veh_passenger" depart="304.80" departLane="best" departSpeed="max" from="47413568#0" to="-273892889"/>
    <trip id="veh82" type="veh_passenger" depart="308.56" departLane="best" from="9937626" to="532250936"/>
    <trip id="veh83" type="veh_passenger" depart="312.32" departLane="best" departSpeed="max" from="686011045" to="10065783#1"/>
    <trip id="veh84" type="veh_passenger" depart="316.09" departLane="best" departSpeed="max" from="47413568#0" to="21840334#4"/>
    <trip id="veh86" type="veh_passenger" depart="323.61" departLane="best" departSpeed="max" from="273892889" to="793117380"/>
    <trip id="veh87" type="veh_passenger" depart="327.38" departLane="best" departSpeed="max" from="47413568#0" to="532250931"/>
    <trip id="veh88" type="veh_passenger" depart="331.14" departLane="best" departSpeed="max" from="686011045" to="335801171#2"/>
    <trip id="veh89" type="veh_passenger" depart="334.90" departLane="best" departSpeed="max" from="47413568#0" to="532250931"/>
    <trip id="veh90" type="veh_passenger" depart="338.66" departLane="best" departSpeed="max" from="21840334#0" to="335801171#2"/>
    <trip id="veh91" type="veh_passenger" depart="342.43" departLane="best" departSpeed="max" from="47413568#0" to="647946355#0"/>
    <trip id="veh92" type="veh_passenger" depart="346.19" departLane="best" departSpeed="max" from="222380082#0" to="793117380"/>
    <trip id="veh93" type="veh_passenger" depart="349.95" departLane="best" departSpeed="max" from="21840334#0" to="21840334#4"/>
    <trip id="veh94" type="veh_passenger" depart="353.72" departLane="best" from="48397504#1" to="48397504#3"/>
    <trip id="veh96" type="veh_passenger" depart="361.24" departLane="best" departSpeed="max" from="686011045" to="23054572"/>
    <trip id="veh97" type="veh_passenger" depart="365.01" departLane="best" from="48397504#1" to="335801181#2"/>
    <trip id="veh98" type="veh_passenger" depart="368.77" departLane="best" departSpeed="max" from="335801174#0" to="335801171#2"/>
    <trip id="veh99" type="veh_passenger" depart="372.53" departLane="best" departSpeed="max" from="47413568#0" to="793117380"/>
    <trip id="veh101" type="veh_passenger" depart="380.06" departLane="best" departSpeed="max" from="48486471" to="240742548#0"/>
    <trip id="veh102" type="veh_passenger" depart="383.82" departLane="best" departSpeed="max" from="273892889" to="532250931"/>
    <trip id="veh104" type="veh_passenger" depart="391.35" departLane="best" from="9937626" to="793117380"/>
    <trip id="veh105" type="veh_passenger" depart="395.11" departLane="best" departSpeed="max" from="21840334#0" to="21840334#4"/>
    <trip id="veh106" type="veh_passenger" depart="398.87" departLane="best" from="240588973" to="793117380"/>
    <trip id="veh107" type="veh_passenger" depart="402.63" departLane="best" from="48397535#1" to="793117380"/>
    <trip id="veh109" type="veh_passenger" depart="410.16" departLane="best" departSpeed="max" from="647946360" to="240742548#0"/>
    <trip id="veh112" type="veh_passenger" depart="421.45" departLane="best" departSpeed="max" from="532250924" to="21840334#4"/>
    <trip id="veh113" type="veh_passenger" depart="425.21" departLane="best" departSpeed="max" from="48447106#0" to="240588973"/>
    <trip id="veh114" type="veh_passenger" depart="428.98" departLane="best" departSpeed="max" from="47413568#0" to="793117380"/>
    <trip id="veh115" type="veh_passenger" depart="432.74" departLane="best" departSpeed="max" from="686011045" to="10065678#0"/>
    <trip id="veh116" type="veh_passenger" depart="436.50" departLane="best" departSpeed="max" from="335801174#0" to="240588974"/>
    <trip id="veh117" type="veh_passenger" depart="440.26" departLane="best" from="10065783#0" to="532250931"/>
    <trip id="veh118" type="veh_passenger" depart="444.03" departLane="best" departSpeed="max" from="48447106#0" to="240588972"/>
    <trip id="veh119" type="veh_passenger" depart="447.79" departLane="best" from="623832943" to="335801166#1"/>
    <trip id="veh121" type="veh_passenger" depart="455.32" departLane="best" departSpeed="max" from="21840334#0" to="793117380"/>
    <trip id="veh122" type="veh_passenger" depart="459.08" departLane="best" departSpeed="max" from="647946360" to="335801171#2"/>
    <trip id="veh124" type="veh_passenger" depart="466.60" departLane="best" departSpeed="max" from="273892889" to="793117380"/>
    <trip id="veh125" type="veh_passenger" depart="470.37" departLane="best" departSpeed="max" from="647946358" to="647946359"/>
    <trip id="veh126" type="veh_passenger" depart="474.13" departLane="best" departSpeed="max" from="686011045" to="21840334#4"/>
    <trip id="veh128" type="veh_passenger" depart="481.66" departLane="best" departSpeed="max" from="647946358" to="793117380"/>
    <trip id="veh129" type="veh_passenger" depart="485.42" departLane="best" departSpeed="max" from="335801174#0" to="335801181#2"/>
    <trip id="veh130" type="veh_passenger" depart="489.18" departLane="best" departSpeed="max" from="222380082#0" to="793117380"/>
    <trip id="veh131" type="veh_passenger" depart="492.95" departLane="best" departSpeed="max" from="647946360" to="793117380"/>
    <trip id="veh132" type="veh_passenger" depart="496.71" departLane="best" departSpeed="max" from="19782153" to="532250931"/>
    <trip id="veh133" type="veh_passenger" depart="500.47" departLane="best" departSpeed="max" from="273892889" to="793117380"/>
    <trip id="veh134" type="veh_passenger" depart="504.23" departLane="best" from="647946359" to="793117380"/>
    <trip id="veh135" type="veh_passenger" depart="508.00" departLane="best" departSpeed="max" from="647946358" to="10065783#1"/>
    <trip id="veh136" type="veh_passenger" depart="511.76" departLane="best" departSpeed="max" from="686011045" to="647946356#1"/>
    <trip id="veh138" type="veh_passenger" depart="519.29" departLane="best" departSpeed="max" from="47413568#0" to="240742548#1"/>
    <trip id="veh139" type="veh_passenger" depart="523.05" departLane="best" departSpeed="max" from="273892889" to="793117380"/>
    <trip id="veh140" type="veh_passenger" depart="526.81" departLane="best" departSpeed="max" from="686011045" to="240588974"/>
    <trip id="veh142" type="veh_passenger" depart="534.34" departLane="best" departSpeed="max" from="686011045" to="10065783#1"/>
    <trip id="veh143" type="veh_passenger" depart="538.10" departLane="best" departSpeed="max" from="686011045" to="19782162#5"/>
    <trip id="veh144" type="veh_passenger" depart="541.86" departLane="best" departSpeed="max" from="686011045" to="240588974"/>
    <trip id="veh145" type="veh_passenger" depart="545.63" departLane="best" departSpeed="max" from="532250924" to="240742548#2"/>
    <trip id="veh146" type="veh_passenger" depart="549.39" departLane="best" from="48397535#1" to="28832849"/>
    <trip id="veh147" type="veh_passenger" depart="553.15" departLane="best" from="335801171#1" to="335801171#2"/>
    <trip id="veh149" type="veh_passenger" depart="560.68" departLane="best" from="10065783#0" to="793117380"/>
    <trip id="veh150" type="veh_passenger" depart="564.44" departLane="best" departSpeed="max" from="47413568#0" to="532250931"/>
    <trip id="veh151" type="veh_passenger" depart="568.20" departLane="best" from="623832943" to="48397504#3"/>
    <trip id="veh152" type="veh_passenger" depart="571.97" departLane="best" departSpeed="max" from="273892889" to="10065678#0"/>
    <trip id="veh153" type="veh_passenger" depart="575.73" departLane="best" departSpeed="max" from="48486471" to="253046616#0"/>
    <trip id="veh155" type="veh_passenger" depart="583.26" departLane="best" departSpeed="max" from="532250924" to="240742548#0"/>
    <trip id="veh157" type="veh_passenger" depart="590.78" departLane="best" departSpeed="max" from="335801174#0" to="240588974"/>
    <trip id="veh158" type="veh_passenger" depart="594.54" departLane="best" departSpeed="max" from="686011045" to="48397504#3"/>
    <trip id="veh159" type="veh_passenger" depart="598.31" departLane="best" departSpeed="max" from="686011045" to="335801181#2"/>
    <trip id="veh160" type="veh_passenger" depart="602.07" departLane="best" from="273830331" to="335801166#1"/>
    <trip id="veh161" type="veh_passenger" depart="605.83" departLane="best" from="10065783#0" to="240588974"/>
    <trip id="veh162" type="veh_passenger" depart="609.60" departLane="best" from="335801181#1" to="335801171#2"/>
    <trip id="veh163" type="veh_passenger" depart="613.36" departLane="best" departSpeed="max" from="48486471" to="274881391"/>
    <trip id="veh164" type="veh_passenger" depart="617.12" departLane="best" departSpeed="max" from="47413568#0" to="21840334#4"/>
    <trip id="veh165" type="veh_passenger" depart="620.89" departLane="best" departSpeed="max" from="47413568#0" to="793117380"/>
    <trip id="veh167" type="veh_passenger" depart="628.41" departLane="best" departSpeed="max" from="48447106#0" to="253046616#0"/>
    <trip id="veh169" type="veh_passenger" depart="635.94" departLane="best" departSpeed="max" from="686011045" to="10065678#0"/>
    <trip id="veh170" type="veh_passenger" depart="639.70" departLane="best" departSpeed="max" from="335801174#0" to="335801181#2"/>
    <trip id="veh173" type="veh_passenger" depart="650.99" departLane="best" departSpeed="max" from="222380082#0" to="793117380"/>
    <trip id="veh174" type="veh_passenger" depart="654.75" departLane="best" departSpeed="max" from="47413568#0" to="-273892889"/>
    <trip id="veh176" type="veh_passenger" depart="662.28" departLane="best" departSpeed="max" from="47413568#0" to="532250931"/>
    <trip id="veh177" type="veh_passenger" depart="666.04" departLane="best" from="48397504#1" to="793117380"/>
    <trip id="veh178" type="veh_passenger" depart="669.80" departLane="best" departSpeed="max" from="686011045" to="335801181#2"/>
    <trip id="veh179" type="veh_passenger" depart="673.57" departLane="best" departSpeed="max" from="532250924" to="28832849"/>
    <trip id="veh180" type="veh_passenger" depart="677.33" departLane="best" departSpeed="max" from="647946360" to="335801166#1"/>
    <trip id="veh181" type="veh_passenger" depart="681.09" departLane="best" departSpeed="max" from="686011045" to="532250931"/>
    <trip id="veh182" type="veh_passenger" depart="684.86" departLane="best" departSpeed="max" from="47413568#0" to="240588972"/>
    <trip id="veh184" type="veh_passenger" depart="692.38" departLane="best" departSpeed="max" from="647946358" to="28832849"/>
    <trip id="veh185" type="veh_passenger" depart="696.14" departLane="best" departSpeed="max" from="48447106#0" to="240588974"/>
    <trip id="veh186" type="veh_passenger" depart="699.91" departLane="best" departSpeed="max" from="21840334#0" to="240588974"/>
    <trip id="veh187" type="veh_passenger" depart="703.67" departLane="best" from="240742548#0" to="253046616#0"/>
    <trip id="veh188" type="veh_passenger" depart="707.43" departLane="best" departSpeed="max" from="47413568#0" to="10065783#1"/>
    <trip id="veh191" type="veh_passenger" depart="718.72" departLane="best" departSpeed="max" from="335801174#0" to="335801166#1"/>
    <trip id="veh192" type="veh_passenger" depart="722.48" departLane="best" departSpeed="max" from="335801174#0" to="21840334#4"/>
    <trip id="veh193" type="veh_passenger" depart="726.25" departLane="best" departSpeed="max" from="335801174#0" to="793117380"/>
    <trip id="veh194" type="veh_passenger" depart="730.01" departLane="best" departSpeed="max" from="47413568#0" to="48397535#1"/>
    <trip id="veh195" type="veh_passenger" depart="733.77" departLane="best" departSpeed="max" from="686011045" to="532250931"/>
    <trip id="veh197" type="veh_passenger" depart="741.30" departLane="best" departSpeed="max" from="273892889" to="532250931"/>
    <trip id="veh198" type="veh_passenger" depart="745.06" departLane="best" departSpeed="max" from="47413568#0" to="335801181#0"/>
    <trip id="veh199" type="veh_passenger" depart="748.83" departLane="best" departSpeed="max" from="222380082#0" to="222380082#1"/>
    <trip id="veh200" type="veh_passenger" depart="752.59" departLane="best" departSpeed="max" from="273892889" to="48397504#3"/>
    <trip id="veh201" type="veh_passenger" depart="756.35" departLane="best" departSpeed="max" from="335801174#0" to="10065783#1"/>
    <trip id="veh202" type="veh_passenger" depart="760.11" departLane="best" departSpeed="max" from="47413568#0" to="10065783#1"/>
    <trip id="veh204" type="veh_passenger" depart="767.64" departLane="best" departSpeed="max" from="335801174#0" to="335801166#1"/>
    <trip id="veh210" type="veh_passenger" depart="790.22" departLane="best" departSpeed="max" from="19782153" to="335801166#1"/>
    <trip id="veh211" type="veh_passenger" depart="793.98" departLane="best" from="9937626" to="253046616#0"/>
    <trip id="veh212" type="veh_passenger" depart="797.74" departLane="best" departSpeed="max" from="48486471" to="532250931"/>
    <trip id="veh213" type="veh_passenger" depart="801.51" departLane="best" departSpeed="max" from="686011045" to="21840334#4"/>
    <trip id="veh214" type="veh_passenger" depart="805.27" departLane="best" departSpeed="max" from="19782153" to="10065783#1"/>
    <trip id="veh216" type="veh_passenger" depart="812.79" departLane="best" departSpeed="max" from="47413568#0" to="222380082#1"/>
    <trip id="veh218" type="veh_passenger" depart="820.32" departLane="best" from="623832943" to="10065783#1"/>
    <trip id="veh219" type="veh_passenger" depart="824.08" departLane="best" departSpeed="max" from="647946360" to="793117380"/>
    <trip id="veh221" type="veh_passenger" depart="831.61" departLane="best" departSpeed="max" from="273892889" to="48397504#3"/>
    <trip id="veh222" type="veh_passenger" depart="835.37" departLane="best" departSpeed="max" from="686011045" to="274881391"/>
    <trip id="veh223" type="veh_passenger" depart="839.14" departLane="best" departSpeed="max" from="532250924" to="10065678#0"/>
    <trip id="veh224" type="veh_passenger" depart="842.90" departLane="best" from="50417422" to="335801181#2"/>
    <trip id="veh226" type="veh_passenger" depart="850.42" departLane="best" departSpeed="max" from="686011045" to="335801171#2"/>
    <trip id="veh227" type="veh_passenger" depart="854.19" departLane="best" departSpeed="max" from="222380082#0" to="793117380"/>
    <trip id="veh228" type="veh_passenger" depart="857.95" departLane="best" departSpeed="max" from="647946358" to="253046616#0"/>
    <trip id="veh230" type="veh_passenger" depart="865.48" departLane="best" departSpeed="max" from="47413568#0" to="253046616#0"/>
    <trip id="veh231" type="veh_passenger" depart="869.24" departLane="best" departSpeed="max" from="686011045" to="532250931"/>
    <trip id="veh232" type="veh_passenger" depart="873.00" departLane="best" departSpeed="max" from="222380082#0" to="793117380"/>
    <trip id="veh234" type="veh_passenger" depart="880.53" departLane="best" from="532250936" to="793117380"/>
    <trip id="veh235" type="veh_passenger" depart="884.29" departLane="best" from="240742548#0" to="532250931"/>
    <trip id="veh236" type="veh_passenger" depart="888.05" departLane="best" from="457774116" to="532250931"/>
    <trip id="veh237" type="veh_passenger" depart="891.82" departLane="best" from="240742548#0" to="647946351"/>
    <trip id="veh238" type="veh_passenger" depart="895.58" departLane="best" departSpeed="max" from="647946360" to="10065678#0"/>
    <trip id="veh239" type="veh_passenger" depart="899.34" departLane="best" departSpeed="max" from="686011045" to="23054572"/>
    <trip id="veh240" type="veh_passenger" depart="903.11" departLane="best" departSpeed="max" from="47413568#0" to="335801181#2"/>
    <trip id="veh242" type="veh_passenger" depart="910.63" departLane="best" departSpeed="max" from="273892889" to="793117380"/>
    <trip id="veh243" type="veh_passenger" depart="914.39" departLane="best" departSpeed="max" from="532250924" to="240588974"/>
    <trip id="veh244" type="veh_passenger" depart="918.16" departLane="best" departSpeed="max" from="19782153" to="793117380"/>
    <trip id="veh245" type="veh_passenger" depart="921.92" departLane="best" departSpeed="max" from="21840334#0" to="532250931"/>
    <trip id="veh246" type="veh_passenger" depart="925.68" departLane="best" departSpeed="max" from="47413568#0" to="532250931"/>
    <trip id="veh248" type="veh_passenger" depart="933.21" departLane="best" departSpeed="max" from="47413568#0" to="532250931"/>
    <trip id="veh249" type="veh_passenger" depart="936.97" departLane="best" from="623832943" to="253046616#0"/>
    <trip id="veh250" type="veh_passenger" depart="940.73" departLane="best" departSpeed="max" from="532250924" to="240588974"/>
    <trip id="veh253" type="veh_passenger" depart="952.02" departLane="best" departSpeed="max" from="47413568#0" to="532250931"/>
    <trip id="veh255" type="veh_passenger" depart="959.55" departLane="best" departSpeed="max" from="47413568#0" to="532250931"/>
    <trip id="veh257" type="veh_passenger" depart="967.08" departLane="best" departSpeed="max" from="532250924" to="10065783#1"/>
    <trip id="veh258" type="veh_passenger" depart="970.84" departLane="best" departSpeed="max" from="686011045" to="274881391"/>
    <trip id="veh259" type="veh_passenger" depart="974.60" departLane="best" departSpeed="max" from="686011045" to="335801171#2"/>
    <trip id="veh261" type="veh_passenger" depart="982.13" departLane="best" departSpeed="max" from="686011045" to="274881391"/>
    <trip id="veh262" type="veh_passenger" depart="985.89" departLane="best" departSpeed="max" from="21840334#0" to="335801181#2"/>
    <trip id="veh263" type="veh_passenger" depart="989.65" departLane="best" from="19782162#5" to="10065783#1"/>
    <trip id="veh264" type="veh_passenger" depart="993.42" departLane="best" departSpeed="max" from="47413568#0" to="240742548#0"/>
    <trip id="veh265" type="veh_passenger" depart="997.18" departLane="best" departSpeed="max" from="686011045" to="10065783#1"/>
    <trip id="veh266" type="veh_passenger" depart="1000.94" departLane="best" departSpeed="max" from="647946358" to="335801181#2"/>
    <trip id="veh267" type="veh_passenger" depart="1004.70" departLane="best" departSpeed="max" from="647946358" to="222380082#1"/>
    <trip id="veh268" type="veh_passenger" depart="1008.47" departLane="best" departSpeed="max" from="47413568#0" to="647946356#2"/>
    <trip id="veh269" type="veh_passenger" depart="1012.23" departLane="best" departSpeed="max" from="686011045" to="240742548#1"/>
    <trip id="veh270" type="veh_passenger" depart="1015.99" departLane="best" departSpeed="max" from="48447106#0" to="335801181#2"/>
    <trip id="veh271" type="veh_passenger" depart="1019.76" departLane="best" from="623832943" to="793117380"/>
    <trip id="veh273" type="veh_passenger" depart="1027.28" departLane="best" departSpeed="max" from="48486471" to="10065783#1"/>
    <trip id="veh276" type="veh_passenger" depart="1038.57" departLane="best" from="48397504#0" to="240588974"/>
    <trip id="veh279" type="veh_passenger" depart="1049.86" departLane="best" departSpeed="max" from="647946358" to="335801181#2"/>
    <trip id="veh280" type="veh_passenger" depart="1053.62" departLane="best" departSpeed="max" from="335801174#0" to="335801166#1"/>
    <trip id="veh281" type="veh_passenger" depart="1057.39" departLane="best" departSpeed="max" from="48447106#0" to="793117380"/>
    <trip id="veh282" type="veh_passenger" depart="1061.15" departLane="best" departSpeed="max" from="647946360" to="10065678#0"/>
    <trip id="veh284" type="veh_passenger" depart="1068.67" departLane="best" from="623832943" to="335801171#2"/>
    <trip id="veh285" type="veh_passenger" depart="1072.44" departLane="best" departSpeed="max" from="48486471" to="50417423"/>
    <trip id="veh286" type="veh_passenger" depart="1076.20" departLane="best" departSpeed="max" from="47413568#0" to="10065678#0"/>
    <trip id="veh288" type="veh_passenger" depart="1083.73" departLane="best" departSpeed="max" from="273892889" to="23054572"/>
    <trip id="veh289" type="veh_passenger" depart="1087.49" departLane="best" departSpeed="max" from="21840334#0" to="793117380"/>
    <trip id="veh290" type="veh_passenger" depart="1091.25" departLane="best" departSpeed="max" from="647946360" to="335801171#2"/>
    <trip id="veh292" type="veh_passenger" depart="1098.78" departLane="best" departSpeed="max" from="48486471" to="240588974"/>
    <trip id="veh293" type="veh_passenger" depart="1102.54" departLane="best" departSpeed="max" from="19782153" to="532250931"/>
    <trip id="veh294" type="veh_passenger" depart="1106.30" departLane="best" departSpeed="max" from="47413568#0" to="48397504#3"/>
    <trip id="veh295" type="veh_passenger" depart="1110.07" departLane="best" departSpeed="max" from="47413568#0" to="335801181#2"/>
    <trip id="veh296" type="veh_passenger" depart="1113.83" departLane="best" departSpeed="max" from="47413568#0" to="10065678#0"/>
    <trip id="veh297" type="veh_passenger" depart="1117.59" departLane="best" departSpeed="max" from="273892889" to="253046616#0"/>