<?xml version="1.0" encoding="UTF-8"?>

<!-- generated on Thu Aug 20 13:37:11 2020 by Eclipse SUMO netconvert Version 1.6.0
<configuration xmlns:xsi="http://www.w3.org/2001/XMLSchema-instance" xsi:noNamespaceSchemaLocation="http://sumo.dlr.de/xsd/netconvertConfiguration.xsd">

    <input>
        <type-files value="/usr/share/sumo/data/typemap/osmNetconvert.typ.xml"/>
        <osm-files value="osm_bbox.osm.xml"/>
    </input>

    <output>
        <output-file value="osm.net.xml"/>
        <output.street-names value="true"/>
        <output.original-names value="true"/>
    </output>

    <projection>
        <proj.utm value="true"/>
    </projection>

    <processing>
        <geometry.remove value="true"/>
        <roundabouts.guess value="true"/>
    </processing>

    <tls_building>
        <tls.discard-simple value="true"/>
        <tls.join value="true"/>
        <tls.guess-signals value="true"/>
        <tls.default-type value="actuated"/>
    </tls_building>

    <ramp_guessing>
        <ramps.guess value="true"/>
    </ramp_guessing>

    <junctions>
        <junctions.join value="true"/>
        <junctions.corner-detail value="5"/>
    </junctions>

    <report>
        <verbose value="true"/>
        <aggregate-warnings value="5"/>
    </report>

</configuration>
-->

<net version="1.6" junctionCornerDetail="5" limitTurnSpeed="5.50" xmlns:xsi="http://www.w3.org/2001/XMLSchema-instance" xsi:noNamespaceSchemaLocation="http://sumo.dlr.de/xsd/net_file.xsd">

    <location netOffset="-365960.82,3834676.00" convBoundary="0.00,0.00,6953.83,4076.44" origBoundary="-58.462555,-34.645246,-58.386304,-34.609154" projParameter="+proj=utm +zone=21 +ellps=WGS84 +datum=WGS84 +units=m +no_defs"/>

    <type id="highway.bridleway" priority="1" numLanes="1" speed="2.78" allow="pedestrian" oneway="1" width="2.00"/>
    <type id="highway.bus_guideway" priority="1" numLanes="1" speed="27.78" allow="bus" oneway="1"/>
    <type id="highway.cycleway" priority="1" numLanes="1" speed="8.33" allow="bicycle" oneway="0" width="1.00"/>
    <type id="highway.footway" priority="1" numLanes="1" speed="2.78" allow="pedestrian" oneway="1" width="2.00"/>
    <type id="highway.ford" priority="1" numLanes="1" speed="2.78" allow="army" oneway="0"/>
    <type id="highway.living_street" priority="2" numLanes="1" speed="2.78" disallow="tram rail_urban rail rail_electric rail_fast ship" oneway="0"/>
    <type id="highway.motorway" priority="14" numLanes="2" speed="39.44" allow="private emergency authority army vip passenger hov taxi bus coach delivery truck trailer motorcycle evehicle custom1 custom2" oneway="1"/>
    <type id="highway.motorway_link" priority="9" numLanes="1" speed="22.22" allow="private emergency authority army vip passenger hov taxi bus coach delivery truck trailer motorcycle evehicle custom1 custom2" oneway="1"/>
    <type id="highway.path" priority="1" numLanes="1" speed="2.78" allow="pedestrian bicycle" oneway="1" width="2.00"/>
    <type id="highway.pedestrian" priority="1" numLanes="1" speed="2.78" allow="pedestrian" oneway="1" width="2.00"/>
    <type id="highway.primary" priority="12" numLanes="2" speed="27.78" disallow="tram rail_urban rail rail_electric rail_fast ship" oneway="0"/>
    <type id="highway.primary_link" priority="7" numLanes="1" speed="22.22" disallow="tram rail_urban rail rail_electric rail_fast ship" oneway="0"/>
    <type id="highway.raceway" priority="15" numLanes="2" speed="83.33" allow="vip" oneway="0"/>
    <type id="highway.residential" priority="3" numLanes="1" speed="13.89" disallow="tram rail_urban rail rail_electric rail_fast ship" oneway="0"/>
    <type id="highway.secondary" priority="11" numLanes="1" speed="27.78" disallow="tram rail_urban rail rail_electric rail_fast ship" oneway="0"/>
    <type id="highway.secondary_link" priority="6" numLanes="1" speed="22.22" disallow="tram rail_urban rail rail_electric rail_fast ship" oneway="0"/>
    <type id="highway.service" priority="1" numLanes="1" speed="5.56" allow="pedestrian delivery bicycle" oneway="0"/>
    <type id="highway.stairs" priority="1" numLanes="1" speed="1.39" allow="pedestrian" oneway="1" width="2.00"/>
    <type id="highway.step" priority="1" numLanes="1" speed="1.39" allow="pedestrian" oneway="1" width="2.00"/>
    <type id="highway.steps" priority="1" numLanes="1" speed="1.39" allow="pedestrian" oneway="1" width="2.00"/>
    <type id="highway.tertiary" priority="10" numLanes="1" speed="22.22" disallow="tram rail_urban rail rail_electric rail_fast ship" oneway="0"/>
    <type id="highway.tertiary_link" priority="5" numLanes="1" speed="22.22" disallow="tram rail_urban rail rail_electric rail_fast ship" oneway="0"/>
    <type id="highway.track" priority="1" numLanes="1" speed="5.56" disallow="tram rail_urban rail rail_electric rail_fast ship" oneway="0"/>
    <type id="highway.trunk" priority="13" numLanes="2" speed="27.78" disallow="pedestrian bicycle tram rail_urban rail rail_electric rail_fast ship" oneway="0"/>
    <type id="highway.trunk_link" priority="8" numLanes="1" speed="22.22" disallow="pedestrian bicycle tram rail_urban rail rail_electric rail_fast ship" oneway="0"/>
    <type id="highway.unclassified" priority="4" numLanes="1" speed="13.89" disallow="tram rail_urban rail rail_electric rail_fast ship" oneway="0"/>
    <type id="highway.unsurfaced" priority="1" numLanes="1" speed="8.33" disallow="tram rail_urban rail rail_electric rail_fast ship" oneway="0"/>
    <type id="railway.highspeed" priority="21" numLanes="1" speed="69.44" allow="rail_fast" oneway="1"/>
    <type id="railway.light_rail" priority="19" numLanes="1" speed="27.78" allow="rail_urban" oneway="1"/>
    <type id="railway.preserved" priority="16" numLanes="1" speed="27.78" allow="rail" oneway="1"/>
    <type id="railway.rail" priority="20" numLanes="1" speed="44.44" allow="rail" oneway="1"/>
    <type id="railway.subway" priority="18" numLanes="1" speed="27.78" allow="rail_urban" oneway="1"/>
    <type id="railway.tram" priority="17" numLanes="1" speed="13.89" allow="tram" oneway="1"/>

    <edge id=":1500798646_0" function="internal">
        <lane id=":1500798646_0_0" index="0" disallow="tram rail_urban rail rail_electric rail_fast ship" speed="6.74" length="8.37" shape="6176.88,2446.88 6176.83,2444.76 6176.07,2443.02 6174.63,2441.65 6172.48,2440.66"/>
    </edge>
    <edge id=":1500798646_1" function="internal">
        <lane id=":1500798646_1_0" index="0" disallow="tram rail_urban rail rail_electric rail_fast ship" speed="8.33" length="9.89" shape="6176.88,2446.88 6178.14,2437.07"/>
    </edge>
    <edge id=":1500798672_0" function="internal">
        <lane id=":1500798672_0_0" index="0" disallow="tram rail_urban rail rail_electric rail_fast ship" speed="8.33" length="5.03" shape="6184.77,2386.05 6185.43,2381.06"/>
    </edge>
    <edge id=":195584247_0" function="internal">
        <lane id=":195584247_0_0" index="0" disallow="tram rail_urban rail rail_electric rail_fast ship" speed="16.67" length="11.05" shape="5606.91,2473.40 5617.69,2475.21"/>
        <lane id=":195584247_0_1" index="1" disallow="tram rail_urban rail rail_electric rail_fast ship" speed="16.67" length="11.05" shape="5606.34,2476.55 5617.20,2478.37"/>
        <lane id=":195584247_0_2" index="2" disallow="tram rail_urban rail rail_electric rail_fast ship" speed="16.67" length="11.05" shape="5605.78,2479.70 5616.72,2481.54"/>
        <lane id=":195584247_0_3" index="3" disallow="tram rail_urban rail rail_electric rail_fast ship" speed="16.67" length="11.05" shape="5605.21,2482.85 5616.23,2484.70"/>
    </edge>
    <edge id=":195584247_4" function="internal">
        <lane id=":195584247_4_0" index="0" disallow="tram rail_urban rail rail_electric rail_fast ship" speed="6.35" length="9.04" shape="5605.21,2482.85 5607.59,2483.64 5609.08,2485.00 5609.69,2486.92 5609.42,2489.41"/>
    </edge>
    <edge id=":195588777_0" function="internal">
        <lane id=":195588777_0_0" index="0" disallow="tram rail_urban rail rail_electric rail_fast ship" speed="8.86" length="17.01" shape="5893.28,2531.01 5895.60,2530.48 5897.74,2528.02 5899.69,2523.63 5901.46,2517.31"/>
    </edge>
    <edge id=":195589441_0" function="internal">
        <lane id=":195589441_0_0" index="0" disallow="tram rail_urban rail rail_electric rail_fast ship" speed="6.59" length="8.90" shape="5769.16,2494.13 5769.21,2496.56 5770.01,2498.43 5771.55,2499.74 5773.85,2500.49"/>
    </edge>
    <edge id=":195589441_1" function="internal">
        <lane id=":195589441_1_0" index="0" disallow="tram rail_urban rail rail_electric rail_fast ship" speed="7.41" length="11.50" shape="5769.16,2494.13 5769.03,2497.95 5769.67,2500.81 5771.09,2502.70 5773.29,2503.64"/>
    </edge>
    <edge id=":195589441_2" function="internal">
        <lane id=":195589441_2_0" index="0" disallow="tram rail_urban rail rail_electric rail_fast ship" speed="11.11" length="20.50" shape="5769.16,2494.13 5768.53,2498.70 5767.64,2504.27 5766.66,2509.83 5765.77,2514.35"/>
    </edge>
    <edge id=":195589441_3" function="internal">
        <lane id=":195589441_3_0" index="0" disallow="tram rail_urban rail rail_electric rail_fast ship" speed="16.67" length="10.85" shape="5763.10,2498.65 5773.85,2500.49"/>
        <lane id=":195589441_3_1" index="1" disallow="tram rail_urban rail rail_electric rail_fast ship" speed="16.67" length="10.85" shape="5762.58,2501.81 5773.29,2503.64"/>
        <lane id=":195589441_3_2" index="2" disallow="tram rail_urban rail rail_electric rail_fast ship" speed="16.67" length="10.85" shape="5762.06,2504.97 5772.73,2506.79"/>
        <lane id=":195589441_3_3" index="3" disallow="tram rail_urban rail rail_electric rail_fast ship" speed="16.67" length="10.85" shape="5761.53,2508.12 5772.17,2509.94"/>
    </edge>
    <edge id=":195589441_7" function="internal">
        <lane id=":195589441_7_0" index="0" disallow="tram rail_urban rail rail_electric rail_fast ship" speed="6.29" length="8.69" shape="5761.53,2508.12 5763.82,2508.85 5765.29,2510.13 5765.94,2511.96 5765.77,2514.35"/>
    </edge>
    <edge id=":195723156_0" function="internal">
        <lane id=":195723156_0_0" index="0" disallow="tram rail_urban rail rail_electric rail_fast ship" speed="6.71" length="9.37" shape="5666.47,2477.05 5666.53,2479.54 5667.41,2481.46 5669.10,2482.80 5671.60,2483.57"/>
    </edge>
    <edge id=":195723156_1" function="internal">
        <lane id=":195723156_1_0" index="0" disallow="tram rail_urban rail rail_electric rail_fast ship" speed="7.51" length="11.98" shape="5666.47,2477.05 5666.35,2480.93 5667.08,2483.84 5668.66,2485.77 5671.08,2486.72"/>
    </edge>
    <edge id=":195723156_2" function="internal">
        <lane id=":195723156_2_0" index="0" disallow="tram rail_urban rail rail_electric rail_fast ship" speed="11.11" length="20.71" shape="5666.47,2477.05 5663.93,2497.61"/>
        <lane id=":195723156_2_1" index="1" disallow="tram rail_urban rail rail_electric rail_fast ship" speed="11.11" length="20.71" shape="5663.29,2476.66 5660.75,2497.22"/>
    </edge>
    <edge id=":195723156_4" function="internal">
        <lane id=":195723156_4_0" index="0" disallow="tram rail_urban rail rail_electric rail_fast ship" speed="16.67" length="14.53" shape="5657.19,2481.27 5671.60,2483.57"/>
        <lane id=":195723156_4_1" index="1" disallow="tram rail_urban rail rail_electric rail_fast ship" speed="16.67" length="14.53" shape="5656.71,2484.44 5671.08,2486.72"/>
        <lane id=":195723156_4_2" index="2" disallow="tram rail_urban rail rail_electric rail_fast ship" speed="16.67" length="14.53" shape="5656.22,2487.60 5670.56,2489.88"/>
        <lane id=":195723156_4_3" index="3" disallow="tram rail_urban rail rail_electric rail_fast ship" speed="16.67" length="14.53" shape="5655.73,2490.76 5670.04,2493.04"/>
    </edge>
    <edge id=":195723156_8" function="internal">
        <lane id=":195723156_8_0" index="0" disallow="tram rail_urban rail rail_electric rail_fast ship" speed="6.65" length="9.26" shape="5655.73,2490.76 5658.19,2491.49 5659.84,2492.81 5660.70,2494.72 5660.75,2497.22"/>
    </edge>
    <edge id=":206105898_0" function="internal">
        <lane id=":206105898_0_0" index="0" disallow="tram rail_urban rail rail_electric rail_fast ship" speed="6.57" length="8.93" shape="6100.12,2269.76 6097.68,2269.80 6095.81,2270.59 6094.51,2272.15 6093.77,2274.46"/>
    </edge>
    <edge id=":206105898_1" function="internal">
        <lane id=":206105898_1_0" index="0" disallow="tram rail_urban rail rail_electric rail_fast ship" speed="11.11" length="10.94" shape="6095.51,2263.66 6093.77,2274.46"/>
    </edge>
    <edge id=":206105898_2" function="internal">
        <lane id=":206105898_2_0" index="0" disallow="tram rail_urban rail rail_electric rail_fast ship" speed="6.39" length="8.77" shape="6089.28,2268.26 6091.59,2268.95 6093.10,2270.22 6093.83,2272.05 6093.77,2274.46"/>
    </edge>
    <edge id=":206106029_0" function="internal">
        <lane id=":206106029_0_0" index="0" disallow="tram rail_urban rail rail_electric rail_fast ship" speed="6.65" length="8.97" shape="5803.50,2215.25 5803.58,2217.70 5804.39,2219.59 5805.95,2220.91 5808.24,2221.67"/>
    </edge>
    <edge id=":206106029_1" function="internal">
        <lane id=":206106029_1_0" index="0" disallow="tram rail_urban rail rail_electric rail_fast ship" speed="8.33" length="10.91" shape="5803.50,2215.25 5802.24,2226.08"/>
    </edge>
    <edge id=":206106029_2" function="internal">
        <lane id=":206106029_2_0" index="0" disallow="tram rail_urban rail rail_electric rail_fast ship" speed="11.11" length="10.91" shape="5797.54,2219.58 5808.24,2221.67"/>
    </edge>
    <edge id=":206106029_3" function="internal">
        <lane id=":206106029_3_0" index="0" disallow="tram rail_urban rail rail_electric rail_fast ship" speed="6.69" length="8.99" shape="5797.54,2219.58 5799.85,2220.41 5801.40,2221.77 5802.20,2223.66 5802.24,2226.08"/>
    </edge>
    <edge id=":206106033_0" function="internal">
        <lane id=":206106033_0_0" index="0" disallow="tram rail_urban rail rail_electric rail_fast ship" speed="6.46" length="9.03" shape="5949.58,2246.95 5952.06,2247.03 5953.96,2246.30 5955.27,2244.75 5956.00,2242.38"/>
    </edge>
    <edge id=":206106033_1" function="internal">
        <lane id=":206106033_1_0" index="0" disallow="tram rail_urban rail rail_electric rail_fast ship" speed="11.11" length="11.24" shape="5949.58,2246.95 5960.67,2248.78"/>
    </edge>
    <edge id=":206106033_2" function="internal">
        <lane id=":206106033_2_0" index="0" disallow="tram rail_urban rail rail_electric rail_fast ship" speed="11.11" length="11.22" shape="5954.18,2253.45 5956.00,2242.38"/>
    </edge>
    <edge id=":206106033_3" function="internal">
        <lane id=":206106033_3_0" index="0" disallow="tram rail_urban rail rail_electric rail_fast ship" speed="6.56" length="9.08" shape="5954.18,2253.45 5954.94,2251.09 5956.28,2249.53 5958.19,2248.76 5960.67,2248.78"/>
    </edge>
    <edge id=":206106034_0" function="internal">
        <lane id=":206106034_0_0" index="0" disallow="tram rail_urban rail rail_electric rail_fast ship" speed="6.59" length="8.94" shape="5970.07,2117.89 5972.51,2117.82 5974.37,2117.01 5975.67,2115.44 5976.40,2113.12"/>
    </edge>
    <edge id=":206106034_1" function="internal">
        <lane id=":206106034_1_0" index="0" disallow="tram rail_urban rail rail_electric rail_fast ship" speed="11.11" length="10.95" shape="5970.07,2117.89 5980.94,2119.21"/>
    </edge>
    <edge id=":206106034_2" function="internal">
        <lane id=":206106034_2_0" index="0" disallow="tram rail_urban rail rail_electric rail_fast ship" speed="11.11" length="10.95" shape="5974.66,2123.92 5976.40,2113.12"/>
    </edge>
    <edge id=":206106034_3" function="internal">
        <lane id=":206106034_3_0" index="0" disallow="tram rail_urban rail rail_electric rail_fast ship" speed="6.53" length="8.90" shape="5974.66,2123.92 5975.37,2121.60 5976.66,2120.04 5978.51,2119.24 5980.94,2119.21"/>
    </edge>
    <edge id=":206150188_0" function="internal">
        <lane id=":206150188_0_0" index="0" disallow="tram rail_urban rail rail_electric rail_fast ship" speed="6.52" length="9.05" shape="5434.10,2145.53 5436.58,2145.68 5438.51,2145.01 5439.90,2143.51 5440.74,2141.18"/>
    </edge>
    <edge id=":206150188_1" function="internal">
        <lane id=":206150188_1_0" index="0" disallow="tram rail_urban rail rail_electric rail_fast ship" speed="11.11" length="11.21" shape="5434.10,2145.53 5445.10,2147.76"/>
    </edge>
    <edge id=":206150188_2" function="internal">
        <lane id=":206150188_2_0" index="0" disallow="tram rail_urban rail rail_electric rail_fast ship" speed="11.11" length="11.21" shape="5438.40,2152.14 5440.74,2141.18"/>
    </edge>
    <edge id=":206150188_3" function="internal">
        <lane id=":206150188_3_0" index="0" disallow="tram rail_urban rail rail_electric rail_fast ship" speed="6.57" length="9.09" shape="5438.40,2152.14 5439.27,2149.81 5440.67,2148.31 5442.62,2147.62 5445.10,2147.76"/>
    </edge>
    <edge id=":235352727_0" function="internal">
        <lane id=":235352727_0_0" index="0" disallow="tram rail_urban rail rail_electric rail_fast ship" speed="6.43" length="9.03" shape="6115.94,2130.94 6115.91,2133.43 6116.69,2135.30 6118.28,2136.56 6120.69,2137.19"/>
    </edge>
    <edge id=":235352727_1" function="internal">
        <lane id=":235352727_1_0" index="0" disallow="tram rail_urban rail rail_electric rail_fast ship" speed="11.11" length="11.30" shape="6115.94,2130.94 6114.21,2142.11"/>
    </edge>
    <edge id=":235352727_2" function="internal">
        <lane id=":235352727_2_0" index="0" disallow="tram rail_urban rail rail_electric rail_fast ship" speed="11.11" length="11.30" shape="6109.47,2135.82 6120.69,2137.19"/>
    </edge>
    <edge id=":235352727_3" function="internal">
        <lane id=":235352727_3_0" index="0" disallow="tram rail_urban rail rail_electric rail_fast ship" speed="6.46" length="9.03" shape="6109.47,2135.82 6111.87,2136.48 6113.45,2137.75 6114.23,2139.63 6114.21,2142.11"/>
    </edge>
    <edge id=":235364455_0" function="internal">
        <lane id=":235364455_0_0" index="0" disallow="tram rail_urban rail rail_electric rail_fast ship" speed="6.53" length="8.94" shape="6210.17,2147.63 6212.62,2147.57 6214.48,2146.75 6215.75,2145.17 6216.42,2142.82"/>
    </edge>
    <edge id=":235364455_1" function="internal">
        <lane id=":235364455_1_0" index="0" disallow="tram rail_urban rail rail_electric rail_fast ship" speed="11.11" length="11.07" shape="6210.17,2147.63 6221.15,2149.08"/>
    </edge>
    <edge id=":235364455_2" function="internal">
        <lane id=":235364455_2_0" index="0" disallow="tram rail_urban rail rail_electric rail_fast ship" speed="8.33" length="11.04" shape="6214.97,2153.77 6216.42,2142.82"/>
    </edge>
    <edge id=":235364455_3" function="internal">
        <lane id=":235364455_3_0" index="0" disallow="tram rail_urban rail rail_electric rail_fast ship" speed="6.41" length="8.89" shape="6214.97,2153.77 6215.61,2151.41 6216.86,2149.85 6218.71,2149.07 6221.15,2149.08"/>
    </edge>
    <edge id=":235364456_0" function="internal">
        <lane id=":235364456_0_0" index="0" disallow="tram rail_urban rail rail_electric rail_fast ship" speed="6.49" length="9.03" shape="6198.00,2287.76 6197.98,2285.28 6197.17,2283.41 6195.57,2282.15 6193.18,2281.49"/>
    </edge>
    <edge id=":235364456_1" function="internal">
        <lane id=":235364456_1_0" index="0" disallow="tram rail_urban rail rail_electric rail_fast ship" speed="8.33" length="11.21" shape="6198.00,2287.76 6199.46,2276.64"/>
    </edge>
    <edge id=":248775774_0" function="internal">
        <lane id=":248775774_0_0" index="0" allow="private emergency authority army vip passenger hov taxi bus coach delivery truck trailer motorcycle evehicle custom1 custom2" speed="16.67" length="7.99" shape="5417.79,2235.44 5419.21,2227.58"/>
    </edge>
    <edge id=":248775774_1" function="internal">
        <lane id=":248775774_1_0" index="0" disallow="tram rail_urban rail rail_electric rail_fast ship" speed="11.11" length="8.01" shape="5420.93,2236.02 5422.41,2228.15"/>
    </edge>
    <edge id=":248775777_0" function="internal">
        <lane id=":248775777_0_0" index="0" allow="private emergency authority army vip passenger hov taxi bus coach delivery truck trailer motorcycle evehicle custom1 custom2" speed="7.92" length="7.47" shape="5429.35,2173.93 5431.46,2172.90 5433.06,2171.76 5434.14,2170.49 5434.71,2169.12"/>
    </edge>
    <edge id=":248775777_1" function="internal">
        <lane id=":248775777_1_0" index="0" disallow="tram rail_urban rail rail_electric rail_fast ship" speed="11.11" length="8.06" shape="5433.04,2177.00 5434.71,2169.12"/>
    </edge>
    <edge id=":316984390_0" function="internal">
        <lane id=":316984390_0_0" index="0" allow="private emergency authority army vip passenger hov taxi bus coach delivery truck trailer motorcycle evehicle custom1 custom2" speed="16.67" length="10.86" shape="6023.32,2347.34 6026.44,2348.34 6028.57,2349.21 6030.55,2350.24 6033.23,2351.69"/>
    </edge>
    <edge id=":316984390_1" function="internal">
        <lane id=":316984390_1_0" index="0" allow="private emergency authority army vip passenger hov taxi bus coach delivery truck trailer motorcycle evehicle custom1 custom2" speed="22.22" length="9.32" shape="6022.41,2350.41 6032.31,2353.38"/>
        <lane id=":316984390_1_1" index="1" allow="private emergency authority army vip passenger hov taxi bus coach delivery truck trailer motorcycle evehicle custom1 custom2" speed="22.22" length="9.32" shape="6021.50,2353.48 6030.75,2356.25"/>
        <lane id=":316984390_1_2" index="2" allow="private emergency authority army vip passenger hov taxi bus coach delivery truck trailer motorcycle evehicle custom1 custom2" speed="22.22" length="9.32" shape="6020.59,2356.55 6029.18,2359.12"/>
        <lane id=":316984390_1_3" index="3" allow="private emergency authority army vip passenger hov taxi bus coach delivery truck trailer motorcycle evehicle custom1 custom2" speed="22.22" length="9.32" shape="6019.67,2359.61 6027.62,2361.99"/>
    </edge>
    <edge id=":316984618_0" function="internal">
        <lane id=":316984618_0_0" index="0" disallow="tram rail_urban rail rail_electric rail_fast ship" speed="6.29" length="9.04" shape="5613.87,2323.65 5611.37,2323.35 5609.46,2323.95 5608.13,2325.45 5607.39,2327.86"/>
    </edge>
    <edge id=":316984618_1" function="internal">
        <lane id=":316984618_1_0" index="0" disallow="tram rail_urban rail rail_electric rail_fast ship" speed="11.11" length="11.21" shape="5613.87,2323.65 5603.04,2320.72"/>
    </edge>
    <edge id=":316984637_0" function="internal">
        <lane id=":316984637_0_0" index="0" disallow="tram rail_urban rail rail_electric rail_fast ship" speed="6.53" length="8.95" shape="5585.99,2464.02 5585.95,2466.48 5586.69,2468.37 5588.22,2469.70 5590.52,2470.47"/>
    </edge>
    <edge id=":316984637_1" function="internal">
        <lane id=":316984637_1_0" index="0" disallow="tram rail_urban rail rail_electric rail_fast ship" speed="7.35" length="11.61" shape="5585.99,2464.02 5585.73,2467.86 5586.30,2470.74 5587.71,2472.66 5589.96,2473.62"/>
    </edge>
    <edge id=":316984637_2" function="internal">
        <lane id=":316984637_2_0" index="0" disallow="tram rail_urban rail rail_electric rail_fast ship" speed="16.67" length="11.03" shape="5579.67,2468.53 5590.52,2470.47"/>
        <lane id=":316984637_2_1" index="1" disallow="tram rail_urban rail rail_electric rail_fast ship" speed="16.67" length="11.03" shape="5579.10,2471.68 5589.96,2473.62"/>
        <lane id=":316984637_2_2" index="2" disallow="tram rail_urban rail rail_electric rail_fast ship" speed="16.67" length="11.03" shape="5578.54,2474.83 5589.40,2476.77"/>
        <lane id=":316984637_2_3" index="3" disallow="tram rail_urban rail rail_electric rail_fast ship" speed="16.67" length="11.03" shape="5577.97,2477.98 5588.83,2479.92"/>
    </edge>
    <edge id=":3673871178_0" function="internal">
        <lane id=":3673871178_0_0" index="0" allow="pedestrian delivery bicycle" speed="3.65" length="4.67" shape="-1.55,0.41 -1.08,-0.95 -0.41,-1.55 0.46,-1.37 1.55,-0.41"/>
    </edge>
    <edge id=":437564732_0" function="internal">
        <lane id=":437564732_0_0" index="0" disallow="tram rail_urban rail rail_electric rail_fast ship" speed="6.51" length="9.03" shape="5552.52,2169.11 5554.99,2169.24 5556.91,2168.56 5558.29,2167.05 5559.11,2164.71"/>
    </edge>
    <edge id=":437564732_1" function="internal">
        <lane id=":437564732_1_0" index="0" disallow="tram rail_urban rail rail_electric rail_fast ship" speed="7.33" length="11.73" shape="5552.52,2169.11 5556.36,2169.52 5559.27,2169.02 5561.23,2167.63 5562.25,2165.34"/>
    </edge>
    <edge id=":437564732_2" function="internal">
        <lane id=":437564732_2_0" index="0" disallow="tram rail_urban rail rail_electric rail_fast ship" speed="11.11" length="20.80" shape="5552.52,2169.11 5572.91,2173.20"/>
    </edge>
    <edge id=":437564732_3" function="internal">
        <lane id=":437564732_3_0" index="0" disallow="tram rail_urban rail rail_electric rail_fast ship" speed="16.67" length="11.22" shape="5556.89,2175.69 5559.11,2164.71"/>
        <lane id=":437564732_3_1" index="1" disallow="tram rail_urban rail rail_electric rail_fast ship" speed="16.67" length="11.22" shape="5560.03,2176.33 5562.25,2165.34"/>
        <lane id=":437564732_3_2" index="2" disallow="tram rail_urban rail rail_electric rail_fast ship" speed="16.67" length="11.22" shape="5563.16,2176.97 5565.38,2165.97"/>
        <lane id=":437564732_3_3" index="3" disallow="tram rail_urban rail rail_electric rail_fast ship" speed="16.67" length="11.22" shape="5566.30,2177.61 5568.52,2166.59"/>
    </edge>
    <edge id=":437564732_7" function="internal">
        <lane id=":437564732_7_0" index="0" disallow="tram rail_urban rail rail_electric rail_fast ship" speed="6.52" length="9.06" shape="5566.30,2177.61 5567.13,2175.27 5568.51,2173.75 5570.44,2173.06 5572.91,2173.20"/>
    </edge>
    <edge id=":437564905_0" function="internal">
        <lane id=":437564905_0_0" index="0" disallow="tram rail_urban rail rail_electric rail_fast ship" speed="6.77" length="8.96" shape="5689.57,2191.38 5689.69,2193.78 5690.54,2195.65 5692.11,2196.99 5694.40,2197.82"/>
    </edge>
    <edge id=":437564905_1" function="internal">
        <lane id=":437564905_1_0" index="0" disallow="tram rail_urban rail rail_electric rail_fast ship" speed="11.11" length="10.76" shape="5689.57,2191.38 5688.81,2202.11"/>
    </edge>
    <edge id=":437564905_2" function="internal">
        <lane id=":437564905_2_0" index="0" disallow="tram rail_urban rail rail_electric rail_fast ship" speed="11.11" length="10.76" shape="5683.86,2195.64 5694.40,2197.82"/>
    </edge>
    <edge id=":437564905_3" function="internal">
        <lane id=":437564905_3_0" index="0" disallow="tram rail_urban rail rail_electric rail_fast ship" speed="6.86" length="9.02" shape="5683.86,2195.64 5686.13,2196.44 5687.71,2197.79 5688.61,2199.68 5688.81,2202.11"/>
    </edge>
    <edge id=":4936220032_0" function="internal">
        <lane id=":4936220032_0_0" index="0" allow="pedestrian delivery bicycle" speed="3.65" length="4.67" shape="6240.09,2430.64 6241.00,2431.76 6241.15,2432.64 6240.54,2433.29 6239.15,2433.70"/>
    </edge>
    <edge id=":616070203_0" function="internal">
        <lane id=":616070203_0_0" index="0" allow="private emergency authority army vip passenger hov taxi bus coach delivery truck trailer motorcycle evehicle custom1 custom2" speed="22.22" length="8.82" shape="6023.48,2379.23 6015.15,2376.79"/>
        <lane id=":616070203_0_1" index="1" allow="private emergency authority army vip passenger hov taxi bus coach delivery truck trailer motorcycle evehicle custom1 custom2" speed="22.22" length="8.82" shape="6024.43,2376.18 6016.01,2373.70"/>
        <lane id=":616070203_0_2" index="2" allow="private emergency authority army vip passenger hov taxi bus coach delivery truck trailer motorcycle evehicle custom1 custom2" speed="22.22" length="8.82" shape="6025.39,2373.12 6016.88,2370.62"/>
        <lane id=":616070203_0_3" index="3" allow="private emergency authority army vip passenger hov taxi bus coach delivery truck trailer motorcycle evehicle custom1 custom2" speed="22.22" length="8.82" shape="6026.34,2370.07 6017.74,2367.54"/>
    </edge>
    <edge id=":616070203_4" function="internal">
        <lane id=":616070203_4_0" index="0" allow="private emergency authority army vip passenger hov taxi bus coach delivery truck trailer motorcycle evehicle custom1 custom2" speed="22.22" length="8.72" shape="6022.88,2381.16 6020.29,2381.00 6018.52,2380.84 6016.78,2380.52 6014.28,2379.87"/>
    </edge>
    <edge id=":640598424_0" function="internal">
        <lane id=":640598424_0_0" index="0" allow="private emergency authority army vip passenger hov taxi bus coach delivery truck trailer motorcycle evehicle custom1 custom2" speed="19.44" length="8.22" shape="6001.86,2376.38 5993.97,2374.08"/>
    </edge>
    <edge id=":640598424_1" function="internal">
        <lane id=":640598424_1_0" index="0" allow="private emergency authority army vip passenger hov taxi bus coach delivery truck trailer motorcycle evehicle custom1 custom2" speed="22.22" length="8.04" shape="6002.72,2373.30 5994.89,2371.06"/>
        <lane id=":640598424_1_1" index="1" allow="private emergency authority army vip passenger hov taxi bus coach delivery truck trailer motorcycle evehicle custom1 custom2" speed="22.22" length="8.04" shape="6003.58,2370.22 5995.82,2368.00"/>
        <lane id=":640598424_1_2" index="2" allow="private emergency authority army vip passenger hov taxi bus coach delivery truck trailer motorcycle evehicle custom1 custom2" speed="22.22" length="8.04" shape="6004.45,2367.14 5996.76,2364.93"/>