<?xml version="1.0" encoding="UTF-8"?>

<!-- generated on Sat Aug  8 14:35:10 2020 by Eclipse SUMO netconvert Version 1.6.0
<configuration xmlns:xsi="http://www.w3.org/2001/XMLSchema-instance" xsi:noNamespaceSchemaLocation="http://sumo.dlr.de/xsd/netconvertConfiguration.xsd">

    <input>
        <type-files value="/usr/share/sumo/data/typemap/osmNetconvert.typ.xml,/usr/share/sumo/data/typemap/osmNetconvertBicycle.typ.xml"/>
        <osm-files value="osm_bbox.osm.xml"/>
    </input>

    <output>
        <output-file value="osm.net.xml"/>
        <output.street-names value="true"/>
        <output.original-names value="true"/>
    </output>

    <projection>
        <proj.utm value="true"/>
    </projection>

    <processing>
        <geometry.remove value="true"/>
        <roundabouts.guess value="true"/>
    </processing>

    <tls_building>
        <tls.discard-simple value="true"/>
        <tls.join value="true"/>
        <tls.guess-signals value="true"/>
        <tls.default-type value="actuated"/>
    </tls_building>

    <ramp_guessing>
        <ramps.guess value="true"/>
    </ramp_guessing>

    <junctions>
        <junctions.join value="true"/>
        <junctions.corner-detail value="5"/>
    </junctions>

    <report>
        <verbose value="true"/>
        <aggregate-warnings value="5"/>
    </report>

</configuration>
-->

<net version="1.6" junctionCornerDetail="5" limitTurnSpeed="5.50" xmlns:xsi="http://www.w3.org/2001/XMLSchema-instance" xsi:noNamespaceSchemaLocation="http://sumo.dlr.de/xsd/net_file.xsd">

    <location netOffset="-364763.86,3836248.51" convBoundary="0.00,0.00,2388.22,1747.14" origBoundary="-58.501604,-34.662275,-58.398876,-34.635617" projParameter="+proj=utm +zone=21 +ellps=WGS84 +datum=WGS84 +units=m +no_defs"/>

    <type id="cycleway.lane" allow="bicycle" bikeLaneWidth="1.00"/>
    <type id="cycleway.opposite_lane" allow="bicycle" bikeLaneWidth="1.00"/>
    <type id="cycleway.opposite_track" allow="bicycle" bikeLaneWidth="1.50"/>
    <type id="cycleway.track" allow="bicycle" bikeLaneWidth="1.50"/>
    <type id="highway.bridleway" priority="1" numLanes="1" speed="2.78" allow="pedestrian" oneway="1" width="2.00"/>
    <type id="highway.bus_guideway" priority="1" numLanes="1" speed="27.78" allow="bus" oneway="1"/>
    <type id="highway.cycleway" priority="1" numLanes="1" speed="8.33" allow="bicycle" oneway="0" width="1.00"/>
    <type id="highway.footway" priority="1" numLanes="1" speed="2.78" allow="pedestrian" oneway="1" width="2.00"/>
    <type id="highway.ford" priority="1" numLanes="1" speed="2.78" allow="army" oneway="0"/>
    <type id="highway.living_street" priority="2" numLanes="1" speed="2.78" disallow="tram rail_urban rail rail_electric rail_fast ship" oneway="0"/>
    <type id="highway.motorway" priority="14" numLanes="2" speed="39.44" allow="private emergency authority army vip passenger hov taxi bus coach delivery truck trailer motorcycle evehicle custom1 custom2" oneway="1"/>
    <type id="highway.motorway_link" priority="9" numLanes="1" speed="22.22" allow="private emergency authority army vip passenger hov taxi bus coach delivery truck trailer motorcycle evehicle custom1 custom2" oneway="1"/>
    <type id="highway.path" priority="1" numLanes="1" speed="2.78" allow="pedestrian bicycle" oneway="1" width="2.00"/>
    <type id="highway.pedestrian" priority="1" numLanes="1" speed="2.78" allow="pedestrian" oneway="1" width="2.00"/>
    <type id="highway.primary" priority="12" numLanes="2" speed="27.78" disallow="tram rail_urban rail rail_electric rail_fast ship" oneway="0"/>
    <type id="highway.primary_link" priority="7" numLanes="1" speed="22.22" disallow="tram rail_urban rail rail_electric rail_fast ship" oneway="0"/>
    <type id="highway.raceway" priority="15" numLanes="2" speed="83.33" allow="vip" oneway="0"/>
    <type id="highway.residential" priority="3" numLanes="1" speed="13.89" disallow="tram rail_urban rail rail_electric rail_fast ship" oneway="0"/>
    <type id="highway.secondary" priority="11" numLanes="1" speed="27.78" disallow="tram rail_urban rail rail_electric rail_fast ship" oneway="0"/>
    <type id="highway.secondary_link" priority="6" numLanes="1" speed="22.22" disallow="tram rail_urban rail rail_electric rail_fast ship" oneway="0"/>
    <type id="highway.service" priority="1" numLanes="1" speed="5.56" allow="pedestrian delivery bicycle" oneway="0"/>
    <type id="highway.stairs" priority="1" numLanes="1" speed="1.39" allow="pedestrian" oneway="1" width="2.00"/>
    <type id="highway.step" priority="1" numLanes="1" speed="1.39" allow="pedestrian" oneway="1" width="2.00"/>
    <type id="highway.steps" priority="1" numLanes="1" speed="1.39" allow="pedestrian" oneway="1" width="2.00"/>
    <type id="highway.tertiary" priority="10" numLanes="1" speed="22.22" disallow="tram rail_urban rail rail_electric rail_fast ship" oneway="0"/>
    <type id="highway.tertiary_link" priority="5" numLanes="1" speed="22.22" disallow="tram rail_urban rail rail_electric rail_fast ship" oneway="0"/>
    <type id="highway.track" priority="1" numLanes="1" speed="5.56" disallow="tram rail_urban rail rail_electric rail_fast ship" oneway="0"/>
    <type id="highway.trunk" priority="13" numLanes="2" speed="27.78" disallow="pedestrian bicycle tram rail_urban rail rail_electric rail_fast ship" oneway="0"/>
    <type id="highway.trunk_link" priority="8" numLanes="1" speed="22.22" disallow="pedestrian bicycle tram rail_urban rail rail_electric rail_fast ship" oneway="0"/>
    <type id="highway.unclassified" priority="4" numLanes="1" speed="13.89" disallow="tram rail_urban rail rail_electric rail_fast ship" oneway="0"/>
    <type id="highway.unsurfaced" priority="1" numLanes="1" speed="8.33" disallow="tram rail_urban rail rail_electric rail_fast ship" oneway="0"/>
    <type id="railway.highspeed" priority="21" numLanes="1" speed="69.44" allow="rail_fast" oneway="1"/>
    <type id="railway.light_rail" priority="19" numLanes="1" speed="27.78" allow="rail_urban" oneway="1"/>
    <type id="railway.preserved" priority="16" numLanes="1" speed="27.78" allow="rail" oneway="1"/>
    <type id="railway.rail" priority="20" numLanes="1" speed="44.44" allow="rail" oneway="1"/>
    <type id="railway.subway" priority="18" numLanes="1" speed="27.78" allow="rail_urban" oneway="1"/>
    <type id="railway.tram" priority="17" numLanes="1" speed="13.89" allow="tram" oneway="1"/>

    <edge id=":1836874894_0" function="internal">
        <lane id=":1836874894_0_0" index="0" disallow="tram rail_urban rail rail_electric rail_fast ship" speed="22.22" length="19.76" shape="807.16,1060.50 801.20,1058.73 797.13,1055.59 793.98,1052.31 790.79,1050.14"/>
    </edge>
    <edge id=":1836874894_1" function="internal">
        <lane id=":1836874894_1_0" index="0" allow="private emergency authority army vip passenger hov taxi bus coach delivery truck trailer motorcycle evehicle custom1 custom2" speed="19.44" length="13.10" shape="794.36,1056.16 797.45,1055.31 799.87,1053.59 802.61,1051.85 806.63,1050.90"/>
        <lane id=":1836874894_1_1" index="1" allow="private emergency authority army vip passenger hov taxi bus coach delivery truck trailer motorcycle evehicle custom1 custom2" speed="19.44" length="13.10" shape="794.36,1056.16 797.53,1055.80 800.10,1055.18 802.91,1054.53 806.81,1054.09"/>
    </edge>
    <edge id=":1836904274_0" function="internal">
        <lane id=":1836904274_0_0" index="0" disallow="tram rail_urban rail rail_electric rail_fast ship" speed="3.65" length="4.67" shape="790.88,1364.71 789.45,1364.92 788.62,1364.59 788.38,1363.73 788.74,1362.33"/>
    </edge>
    <edge id=":1836904277_0" function="internal">
        <lane id=":1836904277_0_0" index="0" disallow="tram rail_urban rail rail_electric rail_fast ship" speed="6.40" length="9.04" shape="841.51,1319.18 839.91,1321.10 839.35,1323.04 839.81,1325.01 841.31,1327.00"/>
    </edge>
    <edge id=":1836904277_1" function="internal">
        <lane id=":1836904277_1_0" index="0" disallow="tram rail_urban rail rail_electric rail_fast ship" speed="11.11" length="11.44" shape="841.51,1319.18 833.00,1326.84"/>
    </edge>
    <edge id=":1836904277_2" function="internal">
        <lane id=":1836904277_2_0" index="0" disallow="tram rail_urban rail rail_electric rail_fast ship" speed="3.65" length="4.67" shape="841.51,1319.18 840.08,1319.39 839.25,1319.06 839.01,1318.20 839.36,1316.80"/>
    </edge>
    <edge id=":1836904277_3" function="internal">
        <lane id=":1836904277_3_0" index="0" disallow="tram rail_urban rail rail_electric rail_fast ship" speed="6.63" length="9.27" shape="831.20,1316.58 833.15,1318.14 835.17,1318.69 837.24,1318.25 839.36,1316.80"/>
    </edge>
    <edge id=":1836904277_4" function="internal">
        <lane id=":1836904277_4_0" index="0" disallow="tram rail_urban rail rail_electric rail_fast ship" speed="11.11" length="14.52" shape="831.20,1316.58 841.31,1327.00"/>
    </edge>
    <edge id=":1836904277_5" function="internal">
        <lane id=":1836904277_5_0" index="0" disallow="tram rail_urban rail rail_electric rail_fast ship" speed="7.28" length="11.77" shape="831.20,1316.58 833.58,1319.64 834.67,1322.37 834.48,1324.77 833.00,1326.84"/>
    </edge>
    <edge id=":1836904277_6" function="internal">
        <lane id=":1836904277_6_0" index="0" disallow="tram rail_urban rail rail_electric rail_fast ship" speed="11.11" length="11.44" shape="830.87,1324.46 839.36,1316.80"/>
    </edge>
    <edge id=":1836904277_7" function="internal">
        <lane id=":1836904277_7_0" index="0" disallow="tram rail_urban rail rail_electric rail_fast ship" speed="7.54" length="11.96" shape="830.87,1324.46 833.08,1323.22 835.55,1323.23 838.30,1324.49 841.31,1327.00"/>
    </edge>
    <edge id=":1836904277_8" function="internal">
        <lane id=":1836904277_8_0" index="0" disallow="tram rail_urban rail rail_electric rail_fast ship" speed="3.65" length="4.67" shape="830.87,1324.46 832.29,1324.25 833.12,1324.58 833.36,1325.44 833.00,1326.84"/>
    </edge>
    <edge id=":1836904279_0" function="internal">
        <lane id=":1836904279_0_0" index="0" disallow="tram rail_urban rail rail_electric rail_fast ship" speed="9.03" length="21.16" shape="694.92,1300.11 689.15,1304.19 684.24,1305.71 680.21,1304.68 677.04,1301.09"/>
    </edge>
    <edge id=":1836904279_1" function="internal">
        <lane id=":1836904279_1_0" index="0" disallow="tram rail_urban rail rail_electric rail_fast ship" speed="8.38" length="18.04" shape="694.92,1300.11 690.25,1303.29 686.18,1304.25 682.70,1303.00 679.83,1299.52"/>
    </edge>
    <edge id=":1836904279_2" function="internal">
        <lane id=":1836904279_2_0" index="0" disallow="tram rail_urban rail rail_electric rail_fast ship" speed="6.12" length="9.06" shape="685.40,1296.39 686.96,1298.41 688.72,1299.31 690.68,1299.06 692.83,1297.69"/>
    </edge>
    <edge id=":1836904280_0" function="internal">
        <lane id=":1836904280_0_0" index="0" disallow="tram rail_urban rail rail_electric rail_fast ship" speed="6.67" length="9.29" shape="888.05,1284.86 886.04,1283.29 884.00,1282.72 881.94,1283.14 879.84,1284.55"/>
    </edge>
    <edge id=":1836904280_1" function="internal">
        <lane id=":1836904280_1_0" index="0" disallow="tram rail_urban rail rail_electric rail_fast ship" speed="11.11" length="14.55" shape="888.05,1284.86 878.06,1274.28"/>
    </edge>
    <edge id=":1836904280_2" function="internal">
        <lane id=":1836904280_2_0" index="0" disallow="tram rail_urban rail rail_electric rail_fast ship" speed="7.96" length="14.29" shape="888.05,1284.86 885.74,1281.68 885.03,1278.54 885.91,1275.45 888.39,1272.40"/>
    </edge>
    <edge id=":1836904280_3" function="internal">
        <lane id=":1836904280_3_0" index="0" disallow="tram rail_urban rail rail_electric rail_fast ship" speed="3.65" length="4.67" shape="888.05,1284.86 887.79,1283.44 888.08,1282.60 888.94,1282.33 890.35,1282.63"/>
    </edge>
    <edge id=":1836904280_4" function="internal">
        <lane id=":1836904280_4_0" index="0" disallow="tram rail_urban rail rail_electric rail_fast ship" speed="6.46" length="9.03" shape="890.56,1274.76 889.00,1276.68 888.44,1278.64 888.89,1280.62 890.35,1282.63"/>
    </edge>
    <edge id=":1836904280_5" function="internal">
        <lane id=":1836904280_5_0" index="0" disallow="tram rail_urban rail rail_electric rail_fast ship" speed="11.11" length="14.52" shape="890.56,1274.76 879.84,1284.55"/>
    </edge>
    <edge id=":1836904280_6" function="internal">
        <lane id=":1836904280_6_0" index="0" disallow="tram rail_urban rail rail_electric rail_fast ship" speed="8.02" length="14.27" shape="890.56,1274.76 887.34,1276.99 884.18,1277.65 881.09,1276.75 878.06,1274.28"/>
    </edge>
    <edge id=":1836904280_7" function="internal">
        <lane id=":1836904280_7_0" index="0" disallow="tram rail_urban rail rail_electric rail_fast ship" speed="3.65" length="4.67" shape="890.56,1274.76 889.14,1274.98 888.30,1274.67 888.05,1273.81 888.39,1272.40"/>
    </edge>
    <edge id=":1836904280_8" function="internal">
        <lane id=":1836904280_8_0" index="0" disallow="tram rail_urban rail rail_electric rail_fast ship" speed="6.52" length="9.10" shape="880.42,1272.11 882.35,1273.68 884.32,1274.26 886.33,1273.83 888.39,1272.40"/>
    </edge>
    <edge id=":1836904280_9" function="internal">
        <lane id=":1836904280_9_0" index="0" disallow="tram rail_urban rail rail_electric rail_fast ship" speed="11.11" length="14.46" shape="880.42,1272.11 890.35,1282.63"/>
    </edge>
    <edge id=":1836904280_10" function="internal">
        <lane id=":1836904280_10_0" index="0" disallow="tram rail_urban rail rail_electric rail_fast ship" speed="7.99" length="14.22" shape="880.42,1272.11 882.63,1275.33 883.27,1278.48 882.34,1281.55 879.84,1284.55"/>
    </edge>
    <edge id=":1836904280_11" function="internal">
        <lane id=":1836904280_11_0" index="0" disallow="tram rail_urban rail rail_electric rail_fast ship" speed="3.65" length="4.67" shape="880.42,1272.11 880.64,1273.54 880.33,1274.37 879.47,1274.62 878.06,1274.28"/>
    </edge>
    <edge id=":1836904280_12" function="internal">
        <lane id=":1836904280_12_0" index="0" disallow="tram rail_urban rail rail_electric rail_fast ship" speed="6.49" length="9.03" shape="877.70,1282.17 879.28,1280.27 879.87,1278.32 879.47,1276.32 878.06,1274.28"/>
    </edge>
    <edge id=":1836904280_13" function="internal">
        <lane id=":1836904280_13_0" index="0" disallow="tram rail_urban rail rail_electric rail_fast ship" speed="11.11" length="14.49" shape="877.70,1282.17 888.39,1272.40"/>
    </edge>
    <edge id=":1836904280_14" function="internal">
        <lane id=":1836904280_14_0" index="0" disallow="tram rail_urban rail rail_electric rail_fast ship" speed="8.14" length="14.32" shape="877.70,1282.17 880.93,1280.00 884.11,1279.35 887.25,1280.23 890.35,1282.63"/>
    </edge>
    <edge id=":1836904280_15" function="internal">
        <lane id=":1836904280_15_0" index="0" disallow="tram rail_urban rail rail_electric rail_fast ship" speed="3.65" length="4.67" shape="877.70,1282.17 879.12,1281.96 879.96,1282.29 880.20,1283.15 879.84,1284.55"/>
    </edge>
    <edge id=":1836904281_0" function="internal">
        <lane id=":1836904281_0_0" index="0" disallow="tram rail_urban rail rail_electric rail_fast ship" speed="16.67" length="14.15" shape="661.36,1273.20 654.16,1261.09"/>
        <lane id=":1836904281_0_1" index="1" disallow="tram rail_urban rail rail_electric rail_fast ship" speed="16.67" length="14.15" shape="664.14,1271.63 656.89,1259.41"/>
    </edge>
    <edge id=":1836904281_2" function="internal">
        <lane id=":1836904281_2_0" index="0" disallow="tram rail_urban rail rail_electric rail_fast ship" speed="3.65" length="2.34" shape="664.14,1271.63 664.25,1270.19 664.75,1269.45"/>
    </edge>
    <edge id=":1836904281_10" function="internal">
        <lane id=":1836904281_10_0" index="0" disallow="tram rail_urban rail rail_electric rail_fast ship" speed="3.65" length="2.34" shape="664.75,1269.45 665.64,1269.40 666.93,1270.06"/>
    </edge>
    <edge id=":1836904281_3" function="internal">
        <lane id=":1836904281_3_0" index="0" disallow="tram rail_urban rail rail_electric rail_fast ship" speed="7.42" length="10.07" shape="671.98,1259.55 670.02,1261.73 668.99,1263.94 668.89,1266.20 669.72,1268.48"/>
    </edge>
    <edge id=":1836904281_4" function="internal">
        <lane id=":1836904281_4_0" index="0" disallow="tram rail_urban rail rail_electric rail_fast ship" speed="8.41" length="17.90" shape="671.98,1259.55 667.40,1262.78 663.36,1263.83 659.86,1262.71 656.89,1259.41"/>
    </edge>
    <edge id=":1836904281_5" function="internal">
        <lane id=":1836904281_5_0" index="0" disallow="tram rail_urban rail rail_electric rail_fast ship" speed="3.65" length="4.67" shape="671.98,1259.55 670.55,1259.75 669.72,1259.42 669.48,1258.55 669.85,1257.16"/>
    </edge>
    <edge id=":1836904281_6" function="internal">
        <lane id=":1836904281_6_0" index="0" disallow="tram rail_urban rail rail_electric rail_fast ship" speed="6.14" length="9.11" shape="662.34,1256.06 663.93,1258.05 665.72,1258.89 667.69,1258.60 669.85,1257.16"/>
    </edge>
    <edge id=":1836904281_7" function="internal">
        <lane id=":1836904281_7_0" index="0" disallow="tram rail_urban rail rail_electric rail_fast ship" speed="16.67" length="14.39" shape="662.34,1256.06 669.72,1268.48"/>
        <lane id=":1836904281_7_1" index="1" disallow="tram rail_urban rail rail_electric rail_fast ship" speed="16.67" length="14.39" shape="659.61,1257.73 666.93,1270.06"/>
    </edge>
    <edge id=":1836904281_9" function="internal">
        <lane id=":1836904281_9_0" index="0" disallow="tram rail_urban rail rail_electric rail_fast ship" speed="3.66" length="2.34" shape="659.61,1257.73 659.56,1259.17 659.09,1259.93"/>
    </edge>
    <edge id=":1836904281_11" function="internal">
        <lane id=":1836904281_11_0" index="0" disallow="tram rail_urban rail rail_electric rail_fast ship" speed="3.66" length="2.34" shape="659.09,1259.93 658.20,1260.01 656.89,1259.41"/>
    </edge>
    <edge id=":1836904283_0" function="internal">
        <lane id=":1836904283_0_0" index="0" disallow="tram rail_urban rail rail_electric rail_fast ship" speed="6.58" length="9.17" shape="765.02,1247.04 763.13,1245.45 761.16,1244.84 759.10,1245.23 756.97,1246.62"/>
    </edge>
    <edge id=":1836904283_1" function="internal">
        <lane id=":1836904283_1_0" index="0" disallow="tram rail_urban rail rail_electric rail_fast ship" speed="11.11" length="14.45" shape="765.02,1247.04 755.29,1236.36"/>
    </edge>
    <edge id=":1836904283_2" function="internal">
        <lane id=":1836904283_2_0" index="0" disallow="tram rail_urban rail rail_electric rail_fast ship" speed="3.65" length="4.67" shape="765.02,1247.04 764.83,1245.61 765.16,1244.78 766.02,1244.55 767.42,1244.92"/>
    </edge>
    <edge id=":1836904283_3" function="internal">
        <lane id=":1836904283_3_0" index="0" disallow="tram rail_urban rail rail_electric rail_fast ship" speed="6.95" length="10.36" shape="766.80,1235.79 765.29,1237.77 764.89,1239.95 765.60,1242.33 767.42,1244.92"/>
    </edge>
    <edge id=":1836904283_4" function="internal">
        <lane id=":1836904283_4_0" index="0" disallow="tram rail_urban rail rail_electric rail_fast ship" speed="11.11" length="14.64" shape="766.80,1235.79 764.23,1238.44 761.91,1241.24 759.58,1244.02 756.97,1246.62"/>
    </edge>
    <edge id=":1836904283_5" function="internal">
        <lane id=":1836904283_5_0" index="0" disallow="tram rail_urban rail rail_electric rail_fast ship" speed="7.74" length="13.05" shape="766.80,1235.79 763.64,1238.04 760.67,1238.88 757.89,1238.32 755.29,1236.36"/>
    </edge>
    <edge id=":1836904283_6" function="internal">
        <lane id=":1836904283_6_0" index="0" disallow="tram rail_urban rail rail_electric rail_fast ship" speed="11.11" length="14.54" shape="757.63,1234.17 767.42,1244.92"/>
    </edge>
    <edge id=":1836904283_7" function="internal">
        <lane id=":1836904283_7_0" index="0" disallow="tram rail_urban rail rail_electric rail_fast ship" speed="7.93" length="14.35" shape="757.63,1234.17 759.90,1237.41 760.54,1240.56 759.57,1243.63 756.97,1246.62"/>
    </edge>
    <edge id=":1836904283_8" function="internal">
        <lane id=":1836904283_8_0" index="0" disallow="tram rail_urban rail rail_electric rail_fast ship" speed="3.65" length="4.67" shape="757.63,1234.17 757.87,1235.59 757.56,1236.43 756.70,1236.68 755.29,1236.36"/>
    </edge>
    <edge id=":1836904283_9" function="internal">
        <lane id=":1836904283_9_0" index="0" disallow="tram rail_urban rail rail_electric rail_fast ship" speed="6.42" length="9.04" shape="754.88,1244.19 756.51,1242.32 757.13,1240.38 756.72,1238.40 755.29,1236.36"/>
    </edge>
    <edge id=":1836904283_10" function="internal">
        <lane id=":1836904283_10_0" index="0" disallow="tram rail_urban rail rail_electric rail_fast ship" speed="8.06" length="14.29" shape="754.88,1244.19 758.19,1242.06 761.39,1241.46 764.46,1242.42 767.42,1244.92"/>
    </edge>
    <edge id=":1836904283_11" function="internal">
        <lane id=":1836904283_11_0" index="0" disallow="tram rail_urban rail rail_electric rail_fast ship" speed="3.65" length="4.67" shape="754.88,1244.19 756.31,1244.02 757.13,1244.36 757.35,1245.23 756.97,1246.62"/>
    </edge>
    <edge id=":1836904284_0" function="internal">
        <lane id=":1836904284_0_0" index="0" disallow="tram rail_urban rail rail_electric rail_fast ship" speed="6.56" length="9.16" shape="840.63,1233.52 838.67,1231.90 836.68,1231.28 834.65,1231.66 832.60,1233.04"/>
    </edge>
    <edge id=":1836904284_1" function="internal">
        <lane id=":1836904284_1_0" index="0" disallow="tram rail_urban rail rail_electric rail_fast ship" speed="7.93" length="14.35" shape="840.63,1233.52 838.39,1230.26 837.78,1227.09 838.78,1224.04 841.40,1221.08"/>
    </edge>
    <edge id=":1836904284_2" function="internal">
        <lane id=":1836904284_2_0" index="0" disallow="tram rail_urban rail rail_electric rail_fast ship" speed="3.65" length="4.67" shape="840.63,1233.52 840.40,1232.09 840.72,1231.26 841.58,1231.01 842.98,1231.35"/>
    </edge>
    <edge id=":1836904284_3" function="internal">
        <lane id=":1836904284_3_0" index="0" disallow="tram rail_urban rail rail_electric rail_fast ship" speed="6.42" length="9.04" shape="843.47,1223.52 841.82,1225.38 841.19,1227.31 841.58,1229.30 842.98,1231.35"/>
    </edge>
    <edge id=":1836904284_4" function="internal">
        <lane id=":1836904284_4_0" index="0" disallow="tram rail_urban rail rail_electric rail_fast ship" speed="11.11" length="14.45" shape="843.47,1223.52 832.60,1233.04"/>
    </edge>
    <edge id=":1836904284_5" function="internal">
        <lane id=":1836904284_5_0" index="0" disallow="tram rail_urban rail rail_electric rail_fast ship" speed="3.65" length="4.67" shape="843.47,1223.52 842.04,1223.68 841.22,1223.33 841.01,1222.46 841.40,1221.08"/>
    </edge>
    <edge id=":1836904284_6" function="internal">
        <lane id=":1836904284_6_0" index="0" disallow="tram rail_urban rail rail_electric rail_fast ship" speed="11.11" length="14.56" shape="830.45,1230.67 841.40,1221.08"/>
    </edge>
    <edge id=":1836904284_7" function="internal">
        <lane id=":1836904284_7_0" index="0" disallow="tram rail_urban rail rail_electric rail_fast ship" speed="8.05" length="14.29" shape="830.45,1230.67 833.67,1228.50 836.83,1227.90 839.94,1228.85 842.98,1231.35"/>
    </edge>
    <edge id=":1836904284_8" function="internal">
        <lane id=":1836904284_8_0" index="0" disallow="tram rail_urban rail rail_electric rail_fast ship" speed="3.65" length="4.67" shape="830.45,1230.67 831.88,1230.45 832.71,1230.78 832.95,1231.64 832.60,1233.04"/>
    </edge>
    <edge id=":1836904285_0" function="internal">
        <lane id=":1836904285_0_0" index="0" disallow="tram rail_urban rail rail_electric rail_fast ship" speed="6.40" length="9.04" shape="943.24,1233.85 941.38,1232.18 939.46,1231.54 937.48,1231.92 935.42,1233.34"/>
    </edge>
    <edge id=":1836904285_1" function="internal">
        <lane id=":1836904285_1_0" index="0" disallow="tram rail_urban rail rail_electric rail_fast ship" speed="11.11" length="14.47" shape="943.24,1233.85 933.75,1222.92"/>
    </edge>
    <edge id=":1836904285_2" function="internal">
        <lane id=":1836904285_2_0" index="0" disallow="tram rail_urban rail rail_electric rail_fast ship" speed="6.58" length="9.19" shape="933.25,1230.99 934.88,1229.01 935.50,1227.01 935.13,1224.98 933.75,1222.92"/>
    </edge>
    <edge id=":1836904285_3" function="internal">
        <lane id=":1836904285_3_0" index="0" disallow="tram rail_urban rail rail_electric rail_fast ship" speed="3.65" length="4.67" shape="933.25,1230.99 934.68,1230.76 935.51,1231.08 935.76,1231.93 935.42,1233.34"/>
    </edge>
    <edge id=":1836904286_0" function="internal">
        <lane id=":1836904286_0_0" index="0" disallow="tram rail_urban rail rail_electric rail_fast ship" speed="6.62" length="9.21" shape="733.05,1212.62 731.11,1211.07 729.10,1210.50 727.05,1210.93 724.94,1212.34"/>
    </edge>
    <edge id=":1836904286_1" function="internal">
        <lane id=":1836904286_1_0" index="0" disallow="tram rail_urban rail rail_electric rail_fast ship" speed="11.11" length="14.46" shape="733.05,1212.62 723.15,1202.09"/>
    </edge>
    <edge id=":1836904286_2" function="internal">
        <lane id=":1836904286_2_0" index="0" disallow="tram rail_urban rail rail_electric rail_fast ship" speed="8.03" length="14.19" shape="733.05,1212.62 730.83,1209.44 730.15,1206.31 731.02,1203.21 733.44,1200.16"/>
    </edge>
    <edge id=":1836904286_3" function="internal">
        <lane id=":1836904286_3_0" index="0" disallow="tram rail_urban rail rail_electric rail_fast ship" speed="3.65" length="4.67" shape="733.05,1212.62 732.82,1211.20 733.13,1210.36 733.98,1210.10 735.39,1210.43"/>
    </edge>
    <edge id=":1836904286_4" function="internal">
        <lane id=":1836904286_4_0" index="0" disallow="tram rail_urban rail rail_electric rail_fast ship" speed="6.54" length="9.06" shape="735.64,1202.47 734.10,1204.43 733.54,1206.40 733.97,1208.41 735.39,1210.43"/>
    </edge>
    <edge id=":1836904286_5" function="internal">
        <lane id=":1836904286_5_0" index="0" disallow="tram rail_urban rail rail_electric rail_fast ship" speed="11.11" length="14.56" shape="735.64,1202.47 724.94,1212.34"/>
    </edge>
    <edge id=":1836904286_6" function="internal">
        <lane id=":1836904286_6_0" index="0" disallow="tram rail_urban rail rail_electric rail_fast ship" speed="8.01" length="14.27" shape="735.64,1202.47 732.47,1204.73 729.32,1205.42 726.22,1204.54 723.15,1202.09"/>
    </edge>
    <edge id=":1836904286_7" function="internal">
        <lane id=":1836904286_7_0" index="0" disallow="tram rail_urban rail rail_electric rail_fast ship" speed="3.65" length="4.67" shape="735.64,1202.47 734.22,1202.72 733.38,1202.42 733.12,1201.56 733.44,1200.16"/>
    </edge>
    <edge id=":1836904286_8" function="internal">
        <lane id=":1836904286_8_0" index="0" disallow="tram rail_urban rail rail_electric rail_fast ship" speed="6.52" length="9.09" shape="725.47,1199.89 727.43,1201.46 729.41,1202.02 731.42,1201.59 733.44,1200.16"/>
    </edge>
    <edge id=":1836904286_9" function="internal">
        <lane id=":1836904286_9_0" index="0" disallow="tram rail_urban rail rail_electric rail_fast ship" speed="11.11" length="14.47" shape="725.47,1199.89 735.39,1210.43"/>
    </edge>
    <edge id=":1836904286_10" function="internal">
        <lane id=":1836904286_10_0" index="0" disallow="tram rail_urban rail rail_electric rail_fast ship" speed="7.95" length="14.30" shape="725.47,1199.89 727.74,1203.11 728.41,1206.25 727.47,1209.33 724.94,1212.34"/>
    </edge>
    <edge id=":1836904286_11" function="internal">
        <lane id=":1836904286_11_0" index="0" disallow="tram rail_urban rail rail_electric rail_fast ship" speed="3.65" length="4.67" shape="725.47,1199.89 725.71,1201.31 725.41,1202.15 724.55,1202.41 723.15,1202.09"/>
    </edge>
    <edge id=":1836904286_12" function="internal">
        <lane id=":1836904286_12_0" index="0" disallow="tram rail_urban rail rail_electric rail_fast ship" speed="6.45" length="9.03" shape="722.81,1209.95 724.41,1208.05 725.00,1206.11 724.58,1204.12 723.15,1202.09"/>
    </edge>
    <edge id=":1836904286_13" function="internal">
        <lane id=":1836904286_13_0" index="0" disallow="tram rail_urban rail rail_electric rail_fast ship" speed="11.11" length="14.45" shape="722.81,1209.95 733.44,1200.16"/>
    </edge>
    <edge id=":1836904286_14" function="internal">
        <lane id=":1836904286_14_0" index="0" disallow="tram rail_urban rail rail_electric rail_fast ship" speed="8.10" length="14.28" shape="722.81,1209.95 726.07,1207.77 729.26,1207.12 732.36,1208.01 735.39,1210.43"/>
    </edge>
    <edge id=":1836904286_15" function="internal">
        <lane id=":1836904286_15_0" index="0" disallow="tram rail_urban rail rail_electric rail_fast ship" speed="3.65" length="4.67" shape="722.81,1209.95 724.24,1209.75 725.07,1210.08 725.30,1210.94 724.94,1212.34"/>
    </edge>
    <edge id=":199798740_0" function="internal">
        <lane id=":199798740_0_0" index="0" disallow="tram rail_urban rail rail_electric rail_fast ship" speed="6.54" length="9.08" shape="992.46,1292.54 990.55,1290.91 988.59,1290.27 986.57,1290.62 984.51,1291.95"/>
    </edge>
    <edge id=":199798740_1" function="internal">
        <lane id=":199798740_1_0" index="0" disallow="tram rail_urban rail rail_electric rail_fast ship" speed="11.11" length="14.41" shape="992.46,1292.54 983.06,1281.62"/>
    </edge>
    <edge id=":199798740_2" function="internal">