<?xml version="1.0" encoding="UTF-8"?>

<!-- generated on Sat Aug  8 14:35:13 2020 by Eclipse SUMO duarouter Version 1.6.0
<configuration xmlns:xsi="http://www.w3.org/2001/XMLSchema-instance" xsi:noNamespaceSchemaLocation="http://sumo.dlr.de/xsd/duarouterConfiguration.xsd">

    <input>
        <net-file value="/home/fede/sumo-1.6.0/tools/2020-08-08-14-35-06/osm.net.xml"/>
        <route-files value="/home/fede/sumo-1.6.0/tools/2020-08-08-14-35-06/osm.bus.trips.xml"/>
    </input>

    <output>
        <output-file value="/home/fede/sumo-1.6.0/tools/2020-08-08-14-35-06/osm.bus.trips.xml.tmp"/>
        <write-trips value="true"/>
    </output>

    <time>
        <begin value="0"/>
        <end value="3600.0"/>
    </time>

    <report>
        <no-warnings value="true"/>
        <ignore-errors value="true"/>
        <no-step-log value="true"/>
    </report>

</configuration>
-->

<routes xmlns:xsi="http://www.w3.org/2001/XMLSchema-instance" xsi:noNamespaceSchemaLocation="http://sumo.dlr.de/xsd/routes_file.xsd">
    <vType id="bus_bus" vClass="bus"/>
    <trip id="bus0" type="bus_bus" depart="0.00" departLane="best" departSpeed="max" from="462876181#0" to="-21619595#0"/>
    <trip id="bus2" type="bus_bus" depart="6.69" departLane="best" departSpeed="max" from="26538887" to="-21619595#0"/>
    <trip id="bus3" type="bus_bus" depart="10.03" departLane="best" departSpeed="max" from="21619592#0" to="40336330#2"/>
    <trip id="bus4" type="bus_bus" depart="13.37" departLane="best" departSpeed="max" from="21619592#0" to="451200196#1"/>
    <trip id="bus7" type="bus_bus" depart="23.40" departLane="best" departSpeed="max" from="-40336330#4" to="-226621813#0"/>
    <trip id="bus8" type="bus_bus" depart="26.75" departLane="best" departSpeed="max" from="39213960" to="93248659#3"/>
    <trip id="bus10" type="bus_bus" depart="33.44" departLane="best" departSpeed="max" from="21619592#0" to="172841677#2"/>
    <trip id="bus12" type="bus_bus" depart="40.12" departLane="best" departSpeed="max" from="21619595#0" to="93248635#2"/>
    <trip id="bus13" type="bus_bus" depart="43.47" departLane="best" departSpeed="max" from="462876181#0" to="451200196#1"/>
    <trip id="bus16" type="bus_bus" depart="53.50" departLane="best" from="93248663#1" to="47034515"/>
    <trip id="bus17" type="bus_bus" depart="56.84" departLane="best" departSpeed="max" from="39354097#0" to="487890810#0"/>
    <trip id="bus19" type="bus_bus" depart="63.53" departLane="best" departSpeed="max" from="462876181#0" to="22791764"/>
    <trip id="bus20" type="bus_bus" depart="66.87" departLane="best" departSpeed="max" from="21619595#0" to="172838892"/>
    <trip id="bus21" type="bus_bus" depart="70.21" departLane="best" departSpeed="max" from="39354097#0" to="172840521"/>
    <trip id="bus22" type="bus_bus" depart="73.56" departLane="best" from="93248675#1" to="40336330#2"/>
    <trip id="bus23" type="bus_bus" depart="76.90" departLane="best" departSpeed="max" from="-40336330#4" to="-21619598#0"/>
    <trip id="bus24" type="bus_bus" depart="80.24" departLane="best" from="-476977623#3" to="47034515"/>
    <trip id="bus27" type="bus_bus" depart="90.27" departLane="best" from="93248675#0" to="40336330#2"/>
    <trip id="bus28" type="bus_bus" depart="93.62" departLane="best" departSpeed="max" from="47035722" to="410083050#1"/>
    <trip id="bus29" type="bus_bus" depart="96.96" departLane="best" departSpeed="max" from="21619595#0" to="47034515"/>
    <trip id="bus30" type="bus_bus" depart="100.31" departLane="best" departSpeed="max" from="336936790#0" to="-93248666#0"/>
    <trip id="bus31" type="bus_bus" depart="103.65" departLane="best" departSpeed="max" from="21619598#0" to="47034515"/>
    <trip id="bus35" type="bus_bus" depart="117.02" departLane="best" departSpeed="max" from="-172841677#2" to="93248635#2"/>
    <trip id="bus36" type="bus_bus" depart="120.37" departLane="best" departSpeed="max" from="-40336330#4" to="336936790#2"/>
    <trip id="bus39" type="bus_bus" depart="130.40" departLane="best" from="26539416#3" to="410083050#3"/>
    <trip id="bus40" type="bus_bus" depart="133.74" departLane="best" departSpeed="max" from="21619595#0" to="661272295"/>
    <trip id="bus42" type="bus_bus" depart="140.43" departLane="best" from="93248675#0" to="47034515"/>
    <trip id="bus43" type="bus_bus" depart="143.77" departLane="best" departSpeed="max" from="26538887" to="40336330#2"/>
    <trip id="bus45" type="bus_bus" depart="150.46" departLane="best" departSpeed="max" from="-40336330#4" to="47034515"/>
    <trip id="bus46" type="bus_bus" depart="153.80" departLane="best" departSpeed="max" from="21619592#0" to="792754347"/>
    <trip id="bus50" type="bus_bus" depart="167.18" departLane="best" departSpeed="max" from="-40336330#4" to="23634395"/>
    <trip id="bus51" type="bus_bus" depart="170.52" departLane="best" departSpeed="max" from="26538887" to="26539416#1"/>
    <trip id="bus52" type="bus_bus" depart="173.86" departLane="best" departSpeed="max" from="142310817#0" to="23634395"/>
    <trip id="bus53" type="bus_bus" depart="177.21" departLane="best" from="21619592#2" to="93248635#2"/>
    <trip id="bus54" type="bus_bus" depart="180.55" departLane="best" departSpeed="max" from="26539416#0" to="661272295"/>
    <trip id="bus55" type="bus_bus" depart="183.89" departLane="best" from="792754344" to="93248635#2"/>
    <trip id="bus56" type="bus_bus" depart="187.24" departLane="best" departSpeed="max" from="336936790#0" to="-93248675#1"/>
    <trip id="bus57" type="bus_bus" depart="190.58" departLane="best" from="23129542#0" to="93248659#3"/>
    <trip id="bus58" type="bus_bus" depart="193.92" departLane="best" departSpeed="max" from="26539416#0" to="22791764"/>
    <trip id="bus59" type="bus_bus" depart="197.27" departLane="best" departSpeed="max" from="39354097#0" to="503279376#1"/>
    <trip id="bus60" type="bus_bus" depart="200.61" departLane="best" departSpeed="max" from="130504338#0" to="172841677#2"/>
    <trip id="bus62" type="bus_bus" depart="207.30" departLane="best" from="-22278551#2" to="451200196#1"/>
    <trip id="bus63" type="bus_bus" depart="210.64" departLane="best" departSpeed="max" from="336936790#0" to="625454211"/>
    <trip id="bus64" type="bus_bus" depart="213.99" departLane="best" departSpeed="max" from="130504338#0" to="93248659#3"/>
    <trip id="bus65" type="bus_bus" depart="217.33" departLane="best" departSpeed="max" from="-40336330#4" to="-93248666#0"/>
    <trip id="bus67" type="bus_bus" depart="224.02" departLane="best" departSpeed="max" from="39213960" to="93248635#2"/>
    <trip id="bus68" type="bus_bus" depart="227.36" departLane="best" from="172838899" to="503279376#1"/>
    <trip id="bus69" type="bus_bus" depart="230.70" departLane="best" departSpeed="max" from="21619592#0" to="22791764"/>
    <trip id="bus70" type="bus_bus" depart="234.05" departLane="best" departSpeed="max" from="47035722" to="172841677#2"/>
    <trip id="bus72" type="bus_bus" depart="240.73" departLane="best" departSpeed="max" from="-40336330#4" to="23634395"/>
    <trip id="bus73" type="bus_bus" depart="244.08" departLane="best" departSpeed="max" from="-40336330#4" to="-93248675#1"/>
    <trip id="bus74" type="bus_bus" depart="247.42" departLane="best" departSpeed="max" from="21619595#0" to="93248635#2"/>
    <trip id="bus77" type="bus_bus" depart="257.45" departLane="best" departSpeed="max" from="462876181#0" to="-172841677#0"/>
    <trip id="bus79" type="bus_bus" depart="264.14" departLane="best" from="463340064#1" to="93248635#2"/>
    <trip id="bus81" type="bus_bus" depart="270.82" departLane="best" departSpeed="max" from="21619595#0" to="451200196#1"/>
    <trip id="bus82" type="bus_bus" depart="274.17" departLane="best" departSpeed="max" from="462876181#0" to="172840521"/>
    <trip id="bus83" type="bus_bus" depart="277.51" departLane="best" departSpeed="max" from="336936790#0" to="792754347"/>
    <trip id="bus86" type="bus_bus" depart="287.54" departLane="best" departSpeed="max" from="487890819" to="410083050#3"/>
    <trip id="bus87" type="bus_bus" depart="290.89" departLane="best" departSpeed="max" from="-40336330#4" to="661272295"/>
    <trip id="bus88" type="bus_bus" depart="294.23" departLane="best" departSpeed="max" from="625454215" to="410083050#3"/>
    <trip id="bus91" type="bus_bus" depart="304.26" departLane="best" departSpeed="max" from="130504338#0" to="93248635#2"/>
    <trip id="bus92" type="bus_bus" depart="307.60" departLane="best" from="624426688" to="93248659#3"/>
    <trip id="bus94" type="bus_bus" depart="314.29" departLane="best" departSpeed="max" from="221650688#0" to="93248635#2"/>
    <trip id="bus98" type="bus_bus" depart="327.66" departLane="best" departSpeed="max" from="462876181#0" to="22791764"/>
    <trip id="bus100" type="bus_bus" depart="334.35" departLane="best" from="-476977623#3" to="23634395"/>
    <trip id="bus101" type="bus_bus" depart="337.70" departLane="best" departSpeed="max" from="487890819" to="21619592#3"/>
    <trip id="bus103" type="bus_bus" depart="344.38" departLane="best" departSpeed="max" from="21619595#0" to="503279376#1"/>
    <trip id="bus104" type="bus_bus" depart="347.73" departLane="best" from="-172841673" to="93248635#2"/>
    <trip id="bus105" type="bus_bus" depart="351.07" departLane="best" departSpeed="max" from="21619598#0" to="22791764"/>
    <trip id="bus106" type="bus_bus" depart="354.41" departLane="best" from="-93248647#1" to="22791764"/>
    <trip id="bus107" type="bus_bus" depart="357.76" departLane="best" departSpeed="max" from="625454215" to="462876181#2"/>
    <trip id="bus108" type="bus_bus" depart="361.10" departLane="best" departSpeed="max" from="21619598#0" to="410083050#3"/>
    <trip id="bus110" type="bus_bus" depart="367.79" departLane="best" departSpeed="max" from="462876181#0" to="21630405"/>
    <trip id="bus111" type="bus_bus" depart="371.13" departLane="best" from="172838884" to="-21619595#0"/>
    <trip id="bus112" type="bus_bus" depart="374.47" departLane="best" departSpeed="max" from="21619592#0" to="265630494"/>
    <trip id="bus114" type="bus_bus" depart="381.16" departLane="best" departSpeed="max" from="26538887" to="47034515"/>
    <trip id="bus115" type="bus_bus" depart="384.50" departLane="best" departSpeed="max" from="142310817#0" to="503279376#1"/>
    <trip id="bus116" type="bus_bus" depart="387.85" departLane="best" departSpeed="max" from="336936790#0" to="172838892"/>
    <trip id="bus117" type="bus_bus" depart="391.19" departLane="best" departSpeed="max" from="462876181#0" to="-172841675#1"/>
    <trip id="bus119" type="bus_bus" depart="397.88" departLane="best" from="-476977623#2" to="22791764"/>
    <trip id="bus120" type="bus_bus" depart="401.22" departLane="best" departSpeed="max" from="142310817#0" to="93248659#3"/>
    <trip id="bus121" type="bus_bus" depart="404.57" departLane="best" departSpeed="max" from="39213960" to="-21619598#0"/>
    <trip id="bus123" type="bus_bus" depart="411.25" departLane="best" from="487890810#0" to="40336330#2"/>
    <trip id="bus125" type="bus_bus" depart="417.94" departLane="best" from="21619592#1" to="47034515"/>
    <trip id="bus127" type="bus_bus" depart="424.63" departLane="best" departSpeed="max" from="-40336330#4" to="172841677#2"/>
    <trip id="bus128" type="bus_bus" depart="427.97" departLane="best" departSpeed="max" from="21619592#0" to="503279376#1"/>
    <trip id="bus130" type="bus_bus" depart="434.66" departLane="best" departSpeed="max" from="26538887" to="-93248666#0"/>
    <trip id="bus133" type="bus_bus" depart="444.69" departLane="best" departSpeed="max" from="39354097#0" to="451200196#1"/>
    <trip id="bus135" type="bus_bus" depart="451.37" departLane="best" departSpeed="max" from="26538887" to="-21619595#0"/>
    <trip id="bus138" type="bus_bus" depart="461.41" departLane="best" departSpeed="max" from="-172841677#2" to="47034515"/>
    <trip id="bus139" type="bus_bus" depart="464.75" departLane="best" departSpeed="max" from="-172841677#2" to="410083050#3"/>
    <trip id="bus140" type="bus_bus" depart="468.09" departLane="best" from="93248675#2" to="22278551#1"/>
    <trip id="bus141" type="bus_bus" depart="471.44" departLane="best" departSpeed="max" from="462876181#0" to="51574172"/>
    <trip id="bus143" type="bus_bus" depart="478.12" departLane="best" departSpeed="max" from="-172841677#2" to="-476977623#2"/>
    <trip id="bus145" type="bus_bus" depart="484.81" departLane="best" departSpeed="max" from="47035722" to="51574172"/>
    <trip id="bus148" type="bus_bus" depart="494.84" departLane="best" departSpeed="max" from="47035722" to="47034515"/>
    <trip id="bus149" type="bus_bus" depart="498.18" departLane="best" from="-625454207" to="93248659#3"/>
    <trip id="bus153" type="bus_bus" depart="511.56" departLane="best" departSpeed="max" from="487890819" to="93248659#3"/>
    <trip id="bus155" type="bus_bus" depart="518.25" departLane="best" departSpeed="max" from="39213960" to="336936790#1"/>
    <trip id="bus156" type="bus_bus" depart="521.59" departLane="best" departSpeed="max" from="26539416#0" to="451200196#1"/>
    <trip id="bus157" type="bus_bus" depart="524.93" departLane="best" from="23129542#0" to="-21619595#0"/>
    <trip id="bus159" type="bus_bus" depart="531.62" departLane="best" from="476977623#1" to="172841677#2"/>
    <trip id="bus160" type="bus_bus" depart="534.96" departLane="best" departSpeed="max" from="-40336330#4" to="503279376#1"/>
    <trip id="bus162" type="bus_bus" depart="541.65" departLane="best" departSpeed="max" from="47035722" to="47034515"/>
    <trip id="bus163" type="bus_bus" depart="544.99" departLane="best" departSpeed="max" from="336936790#0" to="51574172"/>
    <trip id="bus164" type="bus_bus" depart="548.34" departLane="best" departSpeed="max" from="-40336330#4" to="142310817#2"/>
    <trip id="bus165" type="bus_bus" depart="551.68" departLane="best" departSpeed="max" from="47035722" to="172841677#2"/>
    <trip id="bus166" type="bus_bus" depart="555.02" departLane="best" departSpeed="max" from="39213960" to="22791764"/>
    <trip id="bus167" type="bus_bus" depart="558.37" departLane="best" departSpeed="max" from="487890819" to="21619598#4"/>
    <trip id="bus168" type="bus_bus" depart="561.71" departLane="best" from="476977623#2" to="172841675#1"/>
    <trip id="bus172" type="bus_bus" depart="575.08" departLane="best" departSpeed="max" from="142310817#0" to="-93248675#2"/>
    <trip id="bus173" type="bus_bus" depart="578.43" departLane="best" from="93248643#0" to="40336330#2"/>
    <trip id="bus174" type="bus_bus" depart="581.77" departLane="best" departSpeed="max" from="142310817#0" to="172838888"/>
    <trip id="bus175" type="bus_bus" depart="585.12" departLane="best" departSpeed="max" from="142310817#0" to="-21619595#0"/>
    <trip id="bus176" type="bus_bus" depart="588.46" departLane="best" departSpeed="max" from="39213960" to="172841677#1"/>
    <trip id="bus177" type="bus_bus" depart="591.80" departLane="best" from="93248635#0" to="410083050#3"/>
    <trip id="bus179" type="bus_bus" depart="598.49" departLane="best" departSpeed="max" from="624426689" to="451110314"/>
    <trip id="bus180" type="bus_bus" depart="601.83" departLane="best" departSpeed="max" from="26539416#0" to="23634395"/>
    <trip id="bus181" type="bus_bus" depart="605.18" departLane="best" departSpeed="max" from="142310817#0" to="-21619598#0"/>
    <trip id="bus183" type="bus_bus" depart="611.86" departLane="best" departSpeed="max" from="-40336330#4" to="47034515"/>
    <trip id="bus184" type="bus_bus" depart="615.21" departLane="best" departSpeed="max" from="39354097#0" to="172841677#2"/>
    <trip id="bus187" type="bus_bus" depart="625.24" departLane="best" departSpeed="max" from="39213960" to="23634395"/>
    <trip id="bus188" type="bus_bus" depart="628.58" departLane="best" departSpeed="max" from="26539416#0" to="657044728"/>
    <trip id="bus189" type="bus_bus" depart="631.92" departLane="best" departSpeed="max" from="487890819" to="93248647#1"/>
    <trip id="bus190" type="bus_bus" depart="635.27" departLane="best" departSpeed="max" from="142310817#0" to="-21619598#0"/>
    <trip id="bus191" type="bus_bus" depart="638.61" departLane="best" departSpeed="max" from="21619592#0" to="503279376#1"/>
    <trip id="bus192" type="bus_bus" depart="641.96" departLane="best" from="476977623#2" to="23634395"/>
    <trip id="bus193" type="bus_bus" depart="645.30" departLane="best" departSpeed="max" from="47035722" to="93248635#2"/>
    <trip id="bus195" type="bus_bus" depart="651.99" departLane="best" from="463340064#0" to="93248635#2"/>
    <trip id="bus196" type="bus_bus" depart="655.33" departLane="best" departSpeed="max" from="26538887" to="410083050#3"/>
    <trip id="bus198" type="bus_bus" depart="662.02" departLane="best" departSpeed="max" from="487890819" to="410083050#3"/>
    <trip id="bus200" type="bus_bus" depart="668.70" departLane="best" departSpeed="max" from="47035722" to="503279376#1"/>
    <trip id="bus201" type="bus_bus" depart="672.05" departLane="best" departSpeed="max" from="652398702" to="40336330#0"/>
    <trip id="bus202" type="bus_bus" depart="675.39" departLane="best" from="-21619595#2" to="23634395"/>
    <trip id="bus203" type="bus_bus" depart="678.73" departLane="best" from="21619598#4" to="172838892"/>
    <trip id="bus204" type="bus_bus" depart="682.08" departLane="best" departSpeed="max" from="-40336330#4" to="93248659#3"/>
    <trip id="bus205" type="bus_bus" depart="685.42" departLane="best" departSpeed="max" from="47035722" to="172841675#1"/>
    <trip id="bus207" type="bus_bus" depart="692.11" departLane="best" from="26539416#1" to="47034515"/>
    <trip id="bus208" type="bus_bus" depart="695.45" departLane="best" from="40336330#0" to="47034515"/>
    <trip id="bus209" type="bus_bus" depart="698.80" departLane="best" departSpeed="max" from="221650688#0" to="503279376#1"/>
    <trip id="bus211" type="bus_bus" depart="705.48" departLane="best" from="21630401" to="93248659#3"/>
    <trip id="bus213" type="bus_bus" depart="712.17" departLane="best" from="93248659#2" to="47035474#0"/>
    <trip id="bus214" type="bus_bus" depart="715.51" departLane="best" departSpeed="max" from="39213960" to="22791764"/>
    <trip id="bus216" type="bus_bus" depart="722.20" departLane="best" from="51574158" to="47034515"/>
    <trip id="bus217" type="bus_bus" depart="725.54" departLane="best" from="-625454211" to="93248659#3"/>
    <trip id="bus218" type="bus_bus" depart="728.89" departLane="best" departSpeed="max" from="130504338#0" to="410083050#3"/>
    <trip id="bus219" type="bus_bus" depart="732.23" departLane="best" from="93248666#0" to="93248635#2"/>
    <trip id="bus223" type="bus_bus" depart="745.60" departLane="best" from="93248647#0" to="172838892"/>
    <trip id="bus224" type="bus_bus" depart="748.95" departLane="best" departSpeed="max" from="625454215" to="40336330#2"/>
    <trip id="bus225" type="bus_bus" depart="752.29" departLane="best" departSpeed="max" from="26538887" to="93248635#2"/>
    <trip id="bus227" type="bus_bus" depart="758.98" departLane="best" departSpeed="max" from="39213960" to="221651080#1"/>
    <trip id="bus228" type="bus_bus" depart="762.32" departLane="best" departSpeed="max" from="39354097#0" to="410083050#3"/>
    <trip id="bus229" type="bus_bus" depart="765.67" departLane="best" departSpeed="max" from="26539416#0" to="21619595#3"/>
    <trip id="bus230" type="bus_bus" depart="769.01" departLane="best" departSpeed="max" from="142310817#0" to="503279376#1"/>
    <trip id="bus231" type="bus_bus" depart="772.35" departLane="best" departSpeed="max" from="39354097#0" to="172838892"/>
    <trip id="bus233" type="bus_bus" depart="779.04" departLane="best" departSpeed="max" from="-172841677#2" to="40336330#2"/>
    <trip id="bus234" type="bus_bus" depart="782.38" departLane="best" departSpeed="max" from="39213960" to="23634395"/>
    <trip id="bus235" type="bus_bus" depart="785.73" departLane="best" departSpeed="max" from="487890819" to="22791764"/>
    <trip id="bus236" type="bus_bus" depart="789.07" departLane="best" departSpeed="max" from="221650688#0" to="503279376#1"/>
    <trip id="bus237" type="bus_bus" depart="792.41" departLane="best" departSpeed="max" from="462876181#0" to="625454211"/>
    <trip id="bus238" type="bus_bus" depart="795.76" departLane="best" departSpeed="max" from="624426689" to="-21619595#0"/>
    <trip id="bus239" type="bus_bus" depart="799.10" departLane="best" from="-40336330#1" to="47034515"/>
    <trip id="bus240" type="bus_bus" depart="802.44" departLane="best" from="-40336336#1" to="47034515"/>
    <trip id="bus241" type="bus_bus" depart="805.79" departLane="best" departSpeed="max" from="130504338#0" to="40336330#2"/>
    <trip id="bus242" type="bus_bus" depart="809.13" departLane="best" departSpeed="max" from="142310817#0" to="-21619598#1"/>
    <trip id="bus243" type="bus_bus" depart="812.47" departLane="best" departSpeed="max" from="21619592#0" to="93248635#2"/>
    <trip id="bus244" type="bus_bus" depart="815.82" departLane="best" departSpeed="max" from="130504338#0" to="23634395"/>
    <trip id="bus245" type="bus_bus" depart="819.16" departLane="best" departSpeed="max" from="21619595#0" to="172838892"/>
    <trip id="bus246" type="bus_bus" depart="822.51" departLane="best" departSpeed="max" from="130504338#0" to="23634395"/>
    <trip id="bus247" type="bus_bus" depart="825.85" departLane="best" departSpeed="max" from="462876181#0" to="22791764"/>
    <trip id="bus250" type="bus_bus" depart="835.88" departLane="best" departSpeed="max" from="39354097#0" to="451110314"/>
    <trip id="bus251" type="bus_bus" depart="839.22" departLane="best" departSpeed="max" from="21619595#0" to="410083050#3"/>
    <trip id="bus252" type="bus_bus" depart="842.57" departLane="best" departSpeed="max" from="336936790#0" to="792754347"/>
    <trip id="bus255" type="bus_bus" depart="852.60" departLane="best" departSpeed="max" from="462876181#0" to="463340064#1"/>
    <trip id="bus256" type="bus_bus" depart="855.94" departLane="best" departSpeed="max" from="47035722" to="503279376#1-AddedOnRampEdge"/>
    <trip id="bus257" type="bus_bus" depart="859.28" departLane="best" from="462876181#3" to="553137601"/>
    <trip id="bus258" type="bus_bus" depart="862.63" departLane="best" departSpeed="max" from="462876181#0" to="21619592#1"/>
    <trip id="bus259" type="bus_bus" depart="865.97" departLane="best" departSpeed="max" from="487890819" to="-221651081"/>
    <trip id="bus262" type="bus_bus" depart="876.00" departLane="best" departSpeed="max" from="39213960" to="93248659#3"/>
    <trip id="bus263" type="bus_bus" depart="879.35" departLane="best" departSpeed="max" from="39213960" to="93248635#2"/>
    <trip id="bus266" type="bus_bus" depart="889.38" departLane="best" departSpeed="max" from="487890819" to="93248659#3"/>
    <trip id="bus267" type="bus_bus" depart="892.72" departLane="best" departSpeed="max" from="-172841677#2" to="410083050#1"/>
    <trip id="bus268" type="bus_bus" depart="896.06" departLane="best" departSpeed="max" from="26539416#0" to="482585017"/>
    <trip id="bus270" type="bus_bus" depart="902.75" departLane="best" from="-476977623#3" to="172838892"/>
    <trip id="bus271" type="bus_bus" depart="906.09" departLane="best" departSpeed="max" from="-172841677#2" to="661272295"/>
    <trip id="bus273" type="bus_bus" depart="912.78" departLane="best" departSpeed="max" from="21619598#0" to="22791764"/>
    <trip id="bus274" type="bus_bus" depart="916.12" departLane="best" departSpeed="max" from="130504338#0" to="93248647#0"/>
    <trip id="bus275" type="bus_bus" depart="919.47" departLane="best" departSpeed="max" from="652398702" to="22791764"/>
    <trip id="bus276" type="bus_bus" depart="922.81" departLane="best" departSpeed="max" from="487890819" to="-476977623#3"/>
    <trip id="bus277" type="bus_bus" depart="926.15" departLane="best" departSpeed="max" from="336936790#0" to="22791764"/>
    <trip id="bus278" type="bus_bus" depart="929.50" departLane="best" departSpeed="max" from="39213960" to="93248659#3"/>
    <trip id="bus279" type="bus_bus" depart="932.84" departLane="best" from="221651079#1" to="22791764"/>
    <trip id="bus282" type="bus_bus" depart="942.87" departLane="best" from="463340064#1" to="47034515"/>
    <trip id="bus285" type="bus_bus" depart="952.90" departLane="best" from="-93248647#0" to="410083050#3"/>
    <trip id="bus286" type="bus_bus" depart="956.25" departLane="best" from="-40336330#1" to="51574165-AddedOnRampEdge"/>
    <trip id="bus287" type="bus_bus" depart="959.59" departLane="best" departSpeed="max" from="130504338#0" to="792754343#1"/>
    <trip id="bus288" type="bus_bus" depart="962.93" departLane="best" departSpeed="max" from="142310817#0" to="-21619598#0"/>
    <trip id="bus289" type="bus_bus" depart="966.28" departLane="best" departSpeed="max" from="487890819" to="40336330#2"/>
    <trip id="bus291" type="bus_bus" depart="972.96" departLane="best" from="-476977623#3" to="40336330#2"/>
    <trip id="bus293" type="bus_bus" depart="979.65" departLane="best" departSpeed="max" from="39213960" to="23634395"/>
    <trip id="bus294" type="bus_bus" depart="982.99" departLane="best" from="661272297" to="-21619598#0"/>
    <trip id="bus295" type="bus_bus" depart="986.34" departLane="best" from="265630494" to="22791764"/>
    <trip id="bus296" type="bus_bus" depart="989.68" departLane="best" departSpeed="max" from="47035722" to="39354097#2"/>
    <trip id="bus297" type="bus_bus" depart="993.02" departLane="best" departSpeed="max" from="-40336330#4" to="451200196#1"/>
    <trip id="bus298" type="bus_bus" depart="996.37" departLane="best" departSpeed="max" from="39213960" to="23634395"/>
    <trip id="bus299" type="bus_bus" depart="999.71" departLane="best" from="476977623#2" to="625454211"/>
    <trip id="bus300" type="bus_bus" depart="1003.06" departLane="best" departSpeed="max" from="462876181#0" to="51574172"/>
    <trip id="bus301" type="bus_bus" depart="1006.40" departLane="best" departSpeed="max" from="26539416#0" to="172838888"/>
    <trip id="bus302" type="bus_bus" depart="1009.74" departLane="best" departSpeed="max" from="26538887" to="-22278551#2"/>
    <trip id="bus303" type="bus_bus" depart="1013.09" departLane="best" departSpeed="max" from="26538887" to="476977623#2"/>
    <trip id="bus304" type="bus_bus" depart="1016.43" departLane="best" from="226623628#0" to="-476977623#2"/>
    <trip id="bus307" type="bus_bus" depart="1026.46" departLane="best" from="410083050#0" to="410083050#3"/>
    <trip id="bus309" type="bus_bus" depart="1033.15" departLane="best" from="487890810#1" to="93248659#3"/>
    <trip id="bus311" type="bus_bus" depart="1039.83" departLane="best" from="39354097#3" to="-93248675#1"/>
    <trip id="bus317" type="bus_bus" depart="1059.89" departLane="best" departSpeed="max" from="462876181#0" to="-21619595#0"/>
    <trip id="bus318" type="bus_bus" depart="1063.24" departLane="best" departSpeed="max" from="221650688#0" to="-172841675#1"/>
    <trip id="bus319" type="bus_bus" depart="1066.58" departLane="best" departSpeed="max" from="624426689" to="410083050#3"/>
    <trip id="bus320" type="bus_bus" depart="1069.93" departLane="best" departSpeed="max" from="462876181#0" to="-21619595#0"/>
    <trip id="bus321" type="bus_bus" depart="1073.27" departLane="best" departSpeed="max" from="26538887" to="221651079#1"/>
    <trip id="bus323" type="bus_bus" depart="1079.96" departLane="best" departSpeed="max" from="-40336330#4" to="-21619598#0"/>
    <trip id="bus324" type="bus_bus" depart="1083.30" departLane="best" departSpeed="max" from="130504338#0" to="463340064#0"/>
    <trip id="bus325" type="bus_bus" depart="1086.64" departLane="best" departSpeed="max" from="47035722" to="172841677#0"/>
    <trip id="bus327" type="bus_bus" depart="1093.33" departLane="best" departSpeed="max" from="47035722" to="336936790#2"/>
    <trip id="bus328" type="bus_bus" depart="1096.67" departLane="best" from="47034517" to="-21619595#2"/>
    <trip id="bus332" type="bus_bus" depart="1110.05" departLane="best" from="476977623#3" to="40336330#0"/>
    <trip id="bus333" type="bus_bus" depart="1113.39" departLane="best" departSpeed="max" from="-40336330#4" to="661272295"/>
    <trip id="bus335" type="bus_bus" depart="1120.08" departLane="best" from="482585017" to="22791764"/>
    <trip id="bus336" type="bus_bus" depart="1123.42" departLane="best" from="-487890819" to="-21619595#0"/>
    <trip id="bus337" type="bus_bus" depart="1126.77" departLane="best" from="410083050#1" to="40336330#2"/>
    <trip id="bus338" type="bus_bus" depart="1130.11" departLane="best" departSpeed="max" from="142310817#0" to="40336330#2"/>
    <trip id="bus339" type="bus_bus" depart="1133.45" departLane="best" from="-487890819" to="40336330#2"/>
    <trip id="bus340" type="bus_bus" depart="1136.80" departLane="best" departSpeed="max" from="625454215" to="22278551#1"/>
    <trip id="bus341" type="bus_bus" depart="1140.14" departLane="best" departSpeed="max" from="130504338#0" to="-93248666#0"/>
    <trip id="bus342" type="bus_bus" depart="1143.48" departLane="best" departSpeed="max" from="462876181#0" to="-93248666#0"/>
    <trip id="bus344" type="bus_bus" depart="1150.17" departLane="best" departSpeed="max" from="26539416#0" to="93248635#2"/>
    <trip id="bus345" type="bus_bus" depart="1153.51" departLane="best" departSpeed="max" from="39354097#0" to="47034515"/>
    <trip id="bus346" type="bus_bus" depart="1156.86" departLane="best" from="451200196#0" to="-476977623#1"/>
    <trip id="bus347" type="bus_bus" depart="1160.20" departLane="best" from="-22278551#2" to="40336330#2"/>
    <trip id="bus348" type="bus_bus" depart="1163.54" departLane="best" departSpeed="max" from="21619598#0" to="23634395"/>
    <trip id="bus350" type="bus_bus" depart="1170.23" departLane="best" departSpeed="max" from="-40336330#4" to="661272295"/>
    <trip id="bus352" type="bus_bus" depart="1176.92" departLane="best" departSpeed="max" from="336936790#0" to="23648490"/>