<?xml version="1.0" encoding="UTF-8"?>

<!-- generated on Sat Aug  8 14:35:13 2020 by Eclipse SUMO duarouter Version 1.6.0
<configuration xmlns:xsi="http://www.w3.org/2001/XMLSchema-instance" xsi:noNamespaceSchemaLocation="http://sumo.dlr.de/xsd/duarouterConfiguration.xsd">

    <input>
        <net-file value="/home/fede/sumo-1.6.0/tools/2020-08-08-14-35-06/osm.net.xml"/>
        <route-files value="/home/fede/sumo-1.6.0/tools/2020-08-08-14-35-06/osm.truck.trips.xml"/>
    </input>

    <output>
        <output-file value="/home/fede/sumo-1.6.0/tools/2020-08-08-14-35-06/osm.truck.trips.xml.tmp"/>
        <write-trips value="true"/>
    </output>

    <time>
        <begin value="0"/>
        <end value="3600.0"/>
    </time>

    <report>
        <no-warnings value="true"/>
        <ignore-errors value="true"/>
        <no-step-log value="true"/>
    </report>

</configuration>
-->

<routes xmlns:xsi="http://www.w3.org/2001/XMLSchema-instance" xsi:noNamespaceSchemaLocation="http://sumo.dlr.de/xsd/routes_file.xsd">
    <vType id="truck_truck" vClass="truck"/>
    <trip id="truck0" type="truck_truck" depart="0.00" departLane="best" departSpeed="max" from="462876181#0" to="-21619595#0"/>
    <trip id="truck2" type="truck_truck" depart="5.57" departLane="best" departSpeed="max" from="26538887" to="-21619595#0"/>
    <trip id="truck3" type="truck_truck" depart="8.36" departLane="best" departSpeed="max" from="21619592#0" to="40336330#2"/>
    <trip id="truck4" type="truck_truck" depart="11.15" departLane="best" departSpeed="max" from="21619592#0" to="451200196#1"/>
    <trip id="truck7" type="truck_truck" depart="19.50" departLane="best" departSpeed="max" from="-40336330#4" to="-226621813#0"/>
    <trip id="truck8" type="truck_truck" depart="22.29" departLane="best" departSpeed="max" from="39213960" to="93248659#3"/>
    <trip id="truck10" type="truck_truck" depart="27.86" departLane="best" departSpeed="max" from="21619592#0" to="172841677#2"/>
    <trip id="truck12" type="truck_truck" depart="33.44" departLane="best" departSpeed="max" from="21619595#0" to="93248635#2"/>
    <trip id="truck13" type="truck_truck" depart="36.22" departLane="best" departSpeed="max" from="462876181#0" to="451200196#1"/>
    <trip id="truck16" type="truck_truck" depart="44.58" departLane="best" from="93248663#1" to="47034515"/>
    <trip id="truck17" type="truck_truck" depart="47.37" departLane="best" departSpeed="max" from="39354097#0" to="487890810#0"/>
    <trip id="truck19" type="truck_truck" depart="52.94" departLane="best" departSpeed="max" from="462876181#0" to="22791764"/>
    <trip id="truck20" type="truck_truck" depart="55.73" departLane="best" departSpeed="max" from="21619595#0" to="172838892"/>
    <trip id="truck21" type="truck_truck" depart="58.51" departLane="best" departSpeed="max" from="39354097#0" to="172840521"/>
    <trip id="truck22" type="truck_truck" depart="61.30" departLane="best" from="93248675#1" to="40336330#2"/>
    <trip id="truck23" type="truck_truck" depart="64.08" departLane="best" departSpeed="max" from="-40336330#4" to="-21619598#0"/>
    <trip id="truck24" type="truck_truck" depart="66.87" departLane="best" from="-476977623#3" to="47034515"/>
    <trip id="truck27" type="truck_truck" depart="75.23" departLane="best" from="93248675#0" to="40336330#2"/>
    <trip id="truck28" type="truck_truck" depart="78.02" departLane="best" departSpeed="max" from="47035722" to="410083050#1"/>
    <trip id="truck29" type="truck_truck" depart="80.80" departLane="best" departSpeed="max" from="21619595#0" to="47034515"/>
    <trip id="truck30" type="truck_truck" depart="83.59" departLane="best" departSpeed="max" from="336936790#0" to="-93248666#0"/>
    <trip id="truck31" type="truck_truck" depart="86.37" departLane="best" departSpeed="max" from="21619598#0" to="47034515"/>
    <trip id="truck35" type="truck_truck" depart="97.52" departLane="best" departSpeed="max" from="-172841677#2" to="93248635#2"/>
    <trip id="truck36" type="truck_truck" depart="100.31" departLane="best" departSpeed="max" from="-40336330#4" to="336936790#2"/>
    <trip id="truck39" type="truck_truck" depart="108.66" departLane="best" from="26539416#3" to="410083050#3"/>
    <trip id="truck40" type="truck_truck" depart="111.45" departLane="best" departSpeed="max" from="21619595#0" to="661272295"/>
    <trip id="truck42" type="truck_truck" depart="117.02" departLane="best" from="93248675#0" to="47034515"/>
    <trip id="truck43" type="truck_truck" depart="119.81" departLane="best" departSpeed="max" from="26538887" to="40336330#2"/>
    <trip id="truck45" type="truck_truck" depart="125.38" departLane="best" departSpeed="max" from="-40336330#4" to="47034515"/>
    <trip id="truck46" type="truck_truck" depart="128.17" departLane="best" departSpeed="max" from="21619592#0" to="792754347"/>
    <trip id="truck50" type="truck_truck" depart="139.31" departLane="best" departSpeed="max" from="-40336330#4" to="23634395"/>
    <trip id="truck51" type="truck_truck" depart="142.10" departLane="best" departSpeed="max" from="26538887" to="26539416#1"/>
    <trip id="truck52" type="truck_truck" depart="144.89" departLane="best" departSpeed="max" from="142310817#0" to="23634395"/>
    <trip id="truck53" type="truck_truck" depart="147.67" departLane="best" from="21619592#2" to="93248635#2"/>
    <trip id="truck54" type="truck_truck" depart="150.46" departLane="best" departSpeed="max" from="26539416#0" to="661272295"/>
    <trip id="truck55" type="truck_truck" depart="153.24" departLane="best" from="792754344" to="93248635#2"/>
    <trip id="truck56" type="truck_truck" depart="156.03" departLane="best" departSpeed="max" from="336936790#0" to="-93248675#1"/>
    <trip id="truck57" type="truck_truck" depart="158.82" departLane="best" from="23129542#0" to="93248659#3"/>
    <trip id="truck58" type="truck_truck" depart="161.60" departLane="best" departSpeed="max" from="26539416#0" to="22791764"/>
    <trip id="truck59" type="truck_truck" depart="164.39" departLane="best" departSpeed="max" from="39354097#0" to="503279376#1"/>
    <trip id="truck60" type="truck_truck" depart="167.18" departLane="best" departSpeed="max" from="130504338#0" to="172841677#2"/>
    <trip id="truck62" type="truck_truck" depart="172.75" departLane="best" from="-22278551#2" to="451200196#1"/>
    <trip id="truck63" type="truck_truck" depart="175.53" departLane="best" departSpeed="max" from="336936790#0" to="625454211"/>
    <trip id="truck64" type="truck_truck" depart="178.32" departLane="best" departSpeed="max" from="130504338#0" to="93248659#3"/>
    <trip id="truck65" type="truck_truck" depart="181.11" departLane="best" departSpeed="max" from="-40336330#4" to="-93248666#0"/>
    <trip id="truck67" type="truck_truck" depart="186.68" departLane="best" departSpeed="max" from="39213960" to="93248635#2"/>
    <trip id="truck68" type="truck_truck" depart="189.47" departLane="best" from="172838899" to="503279376#1"/>
    <trip id="truck69" type="truck_truck" depart="192.25" departLane="best" departSpeed="max" from="21619592#0" to="22791764"/>
    <trip id="truck70" type="truck_truck" depart="195.04" departLane="best" departSpeed="max" from="47035722" to="172841677#2"/>
    <trip id="truck72" type="truck_truck" depart="200.61" departLane="best" departSpeed="max" from="-40336330#4" to="23634395"/>
    <trip id="truck73" type="truck_truck" depart="203.40" departLane="best" departSpeed="max" from="-40336330#4" to="-93248675#1"/>
    <trip id="truck74" type="truck_truck" depart="206.18" departLane="best" departSpeed="max" from="21619595#0" to="93248635#2"/>
    <trip id="truck77" type="truck_truck" depart="214.54" departLane="best" departSpeed="max" from="462876181#0" to="-172841677#0"/>
    <trip id="truck79" type="truck_truck" depart="220.11" departLane="best" from="463340064#1" to="93248635#2"/>
    <trip id="truck81" type="truck_truck" depart="225.69" departLane="best" departSpeed="max" from="21619595#0" to="451200196#1"/>
    <trip id="truck82" type="truck_truck" depart="228.47" departLane="best" departSpeed="max" from="462876181#0" to="172840521"/>
    <trip id="truck83" type="truck_truck" depart="231.26" departLane="best" departSpeed="max" from="336936790#0" to="792754347"/>
    <trip id="truck86" type="truck_truck" depart="239.62" departLane="best" departSpeed="max" from="487890819" to="410083050#3"/>
    <trip id="truck87" type="truck_truck" depart="242.40" departLane="best" departSpeed="max" from="-40336330#4" to="661272295"/>
    <trip id="truck88" type="truck_truck" depart="245.19" departLane="best" departSpeed="max" from="625454215" to="410083050#3"/>
    <trip id="truck91" type="truck_truck" depart="253.55" departLane="best" departSpeed="max" from="130504338#0" to="93248635#2"/>
    <trip id="truck92" type="truck_truck" depart="256.34" departLane="best" from="624426688" to="93248659#3"/>
    <trip id="truck94" type="truck_truck" depart="261.91" departLane="best" departSpeed="max" from="221650688#0" to="93248635#2"/>
    <trip id="truck98" type="truck_truck" depart="273.05" departLane="best" departSpeed="max" from="462876181#0" to="22791764"/>
    <trip id="truck100" type="truck_truck" depart="278.63" departLane="best" from="-476977623#3" to="23634395"/>
    <trip id="truck101" type="truck_truck" depart="281.41" departLane="best" departSpeed="max" from="487890819" to="21619592#3"/>
    <trip id="truck103" type="truck_truck" depart="286.99" departLane="best" departSpeed="max" from="21619595#0" to="503279376#1"/>
    <trip id="truck104" type="truck_truck" depart="289.77" departLane="best" from="-172841673" to="93248635#2"/>
    <trip id="truck105" type="truck_truck" depart="292.56" departLane="best" departSpeed="max" from="21619598#0" to="22791764"/>
    <trip id="truck106" type="truck_truck" depart="295.34" departLane="best" from="-93248647#1" to="22791764"/>
    <trip id="truck107" type="truck_truck" depart="298.13" departLane="best" departSpeed="max" from="625454215" to="462876181#2"/>
    <trip id="truck108" type="truck_truck" depart="300.92" departLane="best" departSpeed="max" from="21619598#0" to="410083050#3"/>
    <trip id="truck110" type="truck_truck" depart="306.49" departLane="best" departSpeed="max" from="462876181#0" to="21630405"/>
    <trip id="truck111" type="truck_truck" depart="309.28" departLane="best" from="172838884" to="-21619595#0"/>
    <trip id="truck112" type="truck_truck" depart="312.06" departLane="best" departSpeed="max" from="21619592#0" to="265630494"/>
    <trip id="truck114" type="truck_truck" depart="317.63" departLane="best" departSpeed="max" from="26538887" to="47034515"/>
    <trip id="truck115" type="truck_truck" depart="320.42" departLane="best" departSpeed="max" from="142310817#0" to="503279376#1"/>
    <trip id="truck116" type="truck_truck" depart="323.21" departLane="best" departSpeed="max" from="336936790#0" to="172838892"/>
    <trip id="truck117" type="truck_truck" depart="325.99" departLane="best" departSpeed="max" from="462876181#0" to="-172841675#1"/>
    <trip id="truck119" type="truck_truck" depart="331.57" departLane="best" from="-476977623#2" to="22791764"/>
    <trip id="truck120" type="truck_truck" depart="334.35" departLane="best" departSpeed="max" from="142310817#0" to="93248659#3"/>
    <trip id="truck121" type="truck_truck" depart="337.14" departLane="best" departSpeed="max" from="39213960" to="-21619598#0"/>
    <trip id="truck123" type="truck_truck" depart="342.71" departLane="best" from="487890810#0" to="40336330#2"/>
    <trip id="truck125" type="truck_truck" depart="348.28" departLane="best" from="21619592#1" to="47034515"/>
    <trip id="truck127" type="truck_truck" depart="353.86" departLane="best" departSpeed="max" from="-40336330#4" to="172841677#2"/>
    <trip id="truck128" type="truck_truck" depart="356.64" departLane="best" departSpeed="max" from="21619592#0" to="503279376#1"/>
    <trip id="truck130" type="truck_truck" depart="362.21" departLane="best" departSpeed="max" from="26538887" to="-93248666#0"/>
    <trip id="truck133" type="truck_truck" depart="370.57" departLane="best" departSpeed="max" from="39354097#0" to="451200196#1"/>
    <trip id="truck135" type="truck_truck" depart="376.15" departLane="best" departSpeed="max" from="26538887" to="-21619595#0"/>
    <trip id="truck138" type="truck_truck" depart="384.50" departLane="best" departSpeed="max" from="-172841677#2" to="47034515"/>
    <trip id="truck139" type="truck_truck" depart="387.29" departLane="best" departSpeed="max" from="-172841677#2" to="410083050#3"/>
    <trip id="truck140" type="truck_truck" depart="390.08" departLane="best" from="93248675#2" to="22278551#1"/>
    <trip id="truck141" type="truck_truck" depart="392.86" departLane="best" departSpeed="max" from="462876181#0" to="51574172"/>
    <trip id="truck143" type="truck_truck" depart="398.44" departLane="best" departSpeed="max" from="-172841677#2" to="-476977623#2"/>
    <trip id="truck145" type="truck_truck" depart="404.01" departLane="best" departSpeed="max" from="47035722" to="51574172"/>
    <trip id="truck148" type="truck_truck" depart="412.37" departLane="best" departSpeed="max" from="47035722" to="47034515"/>
    <trip id="truck149" type="truck_truck" depart="415.15" departLane="best" from="-625454207" to="93248659#3"/>
    <trip id="truck153" type="truck_truck" depart="426.30" departLane="best" departSpeed="max" from="487890819" to="93248659#3"/>
    <trip id="truck155" type="truck_truck" depart="431.87" departLane="best" departSpeed="max" from="39213960" to="336936790#1"/>
    <trip id="truck156" type="truck_truck" depart="434.66" departLane="best" departSpeed="max" from="26539416#0" to="451200196#1"/>
    <trip id="truck157" type="truck_truck" depart="437.44" departLane="best" from="23129542#0" to="-21619595#0"/>
    <trip id="truck159" type="truck_truck" depart="443.02" departLane="best" from="476977623#1" to="172841677#2"/>
    <trip id="truck160" type="truck_truck" depart="445.80" departLane="best" departSpeed="max" from="-40336330#4" to="503279376#1"/>
    <trip id="truck162" type="truck_truck" depart="451.37" departLane="best" departSpeed="max" from="47035722" to="47034515"/>
    <trip id="truck163" type="truck_truck" depart="454.16" departLane="best" departSpeed="max" from="336936790#0" to="51574172"/>
    <trip id="truck164" type="truck_truck" depart="456.95" departLane="best" departSpeed="max" from="-40336330#4" to="142310817#2"/>
    <trip id="truck165" type="truck_truck" depart="459.73" departLane="best" departSpeed="max" from="47035722" to="172841677#2"/>
    <trip id="truck166" type="truck_truck" depart="462.52" departLane="best" departSpeed="max" from="39213960" to="22791764"/>
    <trip id="truck167" type="truck_truck" depart="465.31" departLane="best" departSpeed="max" from="487890819" to="21619598#4"/>
    <trip id="truck168" type="truck_truck" depart="468.09" departLane="best" from="476977623#2" to="172841675#1"/>
    <trip id="truck172" type="truck_truck" depart="479.24" departLane="best" departSpeed="max" from="142310817#0" to="-93248675#2"/>
    <trip id="truck173" type="truck_truck" depart="482.02" departLane="best" from="93248643#0" to="40336330#2"/>
    <trip id="truck174" type="truck_truck" depart="484.81" departLane="best" departSpeed="max" from="142310817#0" to="172838888"/>
    <trip id="truck175" type="truck_truck" depart="487.60" departLane="best" departSpeed="max" from="142310817#0" to="-21619595#0"/>
    <trip id="truck176" type="truck_truck" depart="490.38" departLane="best" departSpeed="max" from="39213960" to="172841677#1"/>
    <trip id="truck177" type="truck_truck" depart="493.17" departLane="best" from="93248635#0" to="410083050#3"/>
    <trip id="truck179" type="truck_truck" depart="498.74" departLane="best" departSpeed="max" from="624426689" to="451110314"/>
    <trip id="truck180" type="truck_truck" depart="501.53" departLane="best" departSpeed="max" from="26539416#0" to="23634395"/>
    <trip id="truck181" type="truck_truck" depart="504.31" departLane="best" departSpeed="max" from="142310817#0" to="-21619598#0"/>
    <trip id="truck183" type="truck_truck" depart="509.89" departLane="best" departSpeed="max" from="-40336330#4" to="47034515"/>
    <trip id="truck184" type="truck_truck" depart="512.67" departLane="best" departSpeed="max" from="39354097#0" to="172841677#2"/>
    <trip id="truck187" type="truck_truck" depart="521.03" departLane="best" departSpeed="max" from="39213960" to="23634395"/>
    <trip id="truck188" type="truck_truck" depart="523.82" departLane="best" departSpeed="max" from="26539416#0" to="657044728"/>
    <trip id="truck189" type="truck_truck" depart="526.60" departLane="best" departSpeed="max" from="487890819" to="93248647#1"/>
    <trip id="truck190" type="truck_truck" depart="529.39" departLane="best" departSpeed="max" from="142310817#0" to="-21619598#0"/>
    <trip id="truck191" type="truck_truck" depart="532.18" departLane="best" departSpeed="max" from="21619592#0" to="503279376#1"/>
    <trip id="truck192" type="truck_truck" depart="534.96" departLane="best" from="476977623#2" to="23634395"/>
    <trip id="truck193" type="truck_truck" depart="537.75" departLane="best" departSpeed="max" from="47035722" to="93248635#2"/>
    <trip id="truck195" type="truck_truck" depart="543.32" departLane="best" from="463340064#0" to="93248635#2"/>
    <trip id="truck196" type="truck_truck" depart="546.11" departLane="best" departSpeed="max" from="26538887" to="410083050#3"/>
    <trip id="truck198" type="truck_truck" depart="551.68" departLane="best" departSpeed="max" from="487890819" to="410083050#3"/>
    <trip id="truck200" type="truck_truck" depart="557.25" departLane="best" departSpeed="max" from="47035722" to="503279376#1"/>
    <trip id="truck201" type="truck_truck" depart="560.04" departLane="best" departSpeed="max" from="652398702" to="40336330#0"/>
    <trip id="truck202" type="truck_truck" depart="562.83" departLane="best" from="-21619595#2" to="23634395"/>
    <trip id="truck203" type="truck_truck" depart="565.61" departLane="best" from="21619598#4" to="172838892"/>
    <trip id="truck204" type="truck_truck" depart="568.40" departLane="best" departSpeed="max" from="-40336330#4" to="93248659#3"/>
    <trip id="truck205" type="truck_truck" depart="571.18" departLane="best" departSpeed="max" from="47035722" to="172841675#1"/>
    <trip id="truck207" type="truck_truck" depart="576.76" departLane="best" from="26539416#1" to="47034515"/>
    <trip id="truck208" type="truck_truck" depart="579.54" departLane="best" from="40336330#0" to="47034515"/>
    <trip id="truck209" type="truck_truck" depart="582.33" departLane="best" departSpeed="max" from="221650688#0" to="503279376#1"/>
    <trip id="truck211" type="truck_truck" depart="587.90" departLane="best" from="21630401" to="93248659#3"/>
    <trip id="truck213" type="truck_truck" depart="593.47" departLane="best" from="93248659#2" to="47035474#0"/>
    <trip id="truck214" type="truck_truck" depart="596.26" departLane="best" departSpeed="max" from="39213960" to="22791764"/>
    <trip id="truck216" type="truck_truck" depart="601.83" departLane="best" from="51574158" to="47034515"/>
    <trip id="truck217" type="truck_truck" depart="604.62" departLane="best" from="-625454211" to="93248659#3"/>
    <trip id="truck218" type="truck_truck" depart="607.41" departLane="best" departSpeed="max" from="130504338#0" to="410083050#3"/>
    <trip id="truck219" type="truck_truck" depart="610.19" departLane="best" from="93248666#0" to="93248635#2"/>
    <trip id="truck223" type="truck_truck" depart="621.34" departLane="best" from="93248647#0" to="172838892"/>
    <trip id="truck224" type="truck_truck" depart="624.12" departLane="best" departSpeed="max" from="625454215" to="40336330#2"/>
    <trip id="truck225" type="truck_truck" depart="626.91" departLane="best" departSpeed="max" from="26538887" to="93248635#2"/>
    <trip id="truck227" type="truck_truck" depart="632.48" departLane="best" departSpeed="max" from="39213960" to="221651080#1"/>
    <trip id="truck228" type="truck_truck" depart="635.27" departLane="best" departSpeed="max" from="39354097#0" to="410083050#3"/>
    <trip id="truck229" type="truck_truck" depart="638.05" departLane="best" departSpeed="max" from="26539416#0" to="21619595#3"/>
    <trip id="truck230" type="truck_truck" depart="640.84" departLane="best" departSpeed="max" from="142310817#0" to="503279376#1"/>
    <trip id="truck231" type="truck_truck" depart="643.63" departLane="best" departSpeed="max" from="39354097#0" to="172838892"/>
    <trip id="truck233" type="truck_truck" depart="649.20" departLane="best" departSpeed="max" from="-172841677#2" to="40336330#2"/>
    <trip id="truck234" type="truck_truck" depart="651.99" departLane="best" departSpeed="max" from="39213960" to="23634395"/>
    <trip id="truck235" type="truck_truck" depart="654.77" departLane="best" departSpeed="max" from="487890819" to="22791764"/>
    <trip id="truck236" type="truck_truck" depart="657.56" departLane="best" departSpeed="max" from="221650688#0" to="503279376#1"/>
    <trip id="truck237" type="truck_truck" depart="660.34" departLane="best" departSpeed="max" from="462876181#0" to="625454211"/>
    <trip id="truck238" type="truck_truck" depart="663.13" departLane="best" departSpeed="max" from="624426689" to="-21619595#0"/>
    <trip id="truck239" type="truck_truck" depart="665.92" departLane="best" from="-40336330#1" to="47034515"/>
    <trip id="truck240" type="truck_truck" depart="668.70" departLane="best" from="-40336336#1" to="47034515"/>
    <trip id="truck241" type="truck_truck" depart="671.49" departLane="best" departSpeed="max" from="130504338#0" to="40336330#2"/>
    <trip id="truck242" type="truck_truck" depart="674.28" departLane="best" departSpeed="max" from="142310817#0" to="-21619598#1"/>
    <trip id="truck243" type="truck_truck" depart="677.06" departLane="best" departSpeed="max" from="21619592#0" to="93248635#2"/>
    <trip id="truck244" type="truck_truck" depart="679.85" departLane="best" departSpeed="max" from="130504338#0" to="23634395"/>
    <trip id="truck245" type="truck_truck" depart="682.63" departLane="best" departSpeed="max" from="21619595#0" to="172838892"/>
    <trip id="truck246" type="truck_truck" depart="685.42" departLane="best" departSpeed="max" from="130504338#0" to="23634395"/>
    <trip id="truck247" type="truck_truck" depart="688.21" departLane="best" departSpeed="max" from="462876181#0" to="22791764"/>
    <trip id="truck250" type="truck_truck" depart="696.57" departLane="best" departSpeed="max" from="39354097#0" to="451110314"/>
    <trip id="truck251" type="truck_truck" depart="699.35" departLane="best" departSpeed="max" from="21619595#0" to="410083050#3"/>
    <trip id="truck252" type="truck_truck" depart="702.14" departLane="best" departSpeed="max" from="336936790#0" to="792754347"/>
    <trip id="truck255" type="truck_truck" depart="710.50" departLane="best" departSpeed="max" from="462876181#0" to="463340064#1"/>
    <trip id="truck256" type="truck_truck" depart="713.28" departLane="best" departSpeed="max" from="47035722" to="503279376#1-AddedOnRampEdge"/>
    <trip id="truck257" type="truck_truck" depart="716.07" departLane="best" from="462876181#3" to="553137601"/>
    <trip id="truck258" type="truck_truck" depart="718.86" departLane="best" departSpeed="max" from="462876181#0" to="21619592#1"/>
    <trip id="truck259" type="truck_truck" depart="721.64" departLane="best" departSpeed="max" from="487890819" to="-221651081"/>
    <trip id="truck262" type="truck_truck" depart="730.00" departLane="best" departSpeed="max" from="39213960" to="93248659#3"/>
    <trip id="truck263" type="truck_truck" depart="732.79" departLane="best" departSpeed="max" from="39213960" to="93248635#2"/>
    <trip id="truck266" type="truck_truck" depart="741.15" departLane="best" departSpeed="max" from="487890819" to="93248659#3"/>
    <trip id="truck267" type="truck_truck" depart="743.93" departLane="best" departSpeed="max" from="-172841677#2" to="410083050#1"/>
    <trip id="truck268" type="truck_truck" depart="746.72" departLane="best" departSpeed="max" from="26539416#0" to="482585017"/>
    <trip id="truck270" type="truck_truck" depart="752.29" departLane="best" from="-476977623#3" to="172838892"/>
    <trip id="truck271" type="truck_truck" depart="755.08" departLane="best" departSpeed="max" from="-172841677#2" to="661272295"/>
    <trip id="truck273" type="truck_truck" depart="760.65" departLane="best" departSpeed="max" from="21619598#0" to="22791764"/>
    <trip id="truck274" type="truck_truck" depart="763.44" departLane="best" departSpeed="max" from="130504338#0" to="93248647#0"/>
    <trip id="truck275" type="truck_truck" depart="766.22" departLane="best" departSpeed="max" from="652398702" to="22791764"/>
    <trip id="truck276" type="truck_truck" depart="769.01" departLane="best" departSpeed="max" from="487890819" to="-476977623#3"/>
    <trip id="truck277" type="truck_truck" depart="771.80" departLane="best" departSpeed="max" from="336936790#0" to="22791764"/>
    <trip id="truck278" type="truck_truck" depart="774.58" departLane="best" departSpeed="max" from="39213960" to="93248659#3"/>
    <trip id="truck279" type="truck_truck" depart="777.37" departLane="best" from="221651079#1" to="22791764"/>
    <trip id="truck282" type="truck_truck" depart="785.73" departLane="best" from="463340064#1" to="47034515"/>
    <trip id="truck285" type="truck_truck" depart="794.09" departLane="best" from="-93248647#0" to="410083050#3"/>
    <trip id="truck286" type="truck_truck" depart="796.87" departLane="best" from="-40336330#1" to="51574165-AddedOnRampEdge"/>
    <trip id="truck287" type="truck_truck" depart="799.66" departLane="best" departSpeed="max" from="130504338#0" to="792754343#1"/>
    <trip id="truck288" type="truck_truck" depart="802.44" departLane="best" departSpeed="max" from="142310817#0" to="-21619598#0"/>
    <trip id="truck289" type="truck_truck" depart="805.23" departLane="best" departSpeed="max" from="487890819" to="40336330#2"/>
    <trip id="truck291" type="truck_truck" depart="810.80" departLane="best" from="-476977623#3" to="40336330#2"/>
    <trip id="truck293" type="truck_truck" depart="816.38" departLane="best" departSpeed="max" from="39213960" to="23634395"/>
    <trip id="truck294" type="truck_truck" depart="819.16" departLane="best" from="661272297" to="-21619598#0"/>
    <trip id="truck295" type="truck_truck" depart="821.95" departLane="best" from="265630494" to="22791764"/>
    <trip id="truck296" type="truck_truck" depart="824.73" departLane="best" departSpeed="max" from="47035722" to="39354097#2"/>
    <trip id="truck297" type="truck_truck" depart="827.52" departLane="best" departSpeed="max" from="-40336330#4" to="451200196#1"/>
    <trip id="truck298" type="truck_truck" depart="830.31" departLane="best" departSpeed="max" from="39213960" to="23634395"/>
    <trip id="truck299" type="truck_truck" depart="833.09" departLane="best" from="476977623#2" to="625454211"/>
    <trip id="truck300" type="truck_truck" depart="835.88" departLane="best" departSpeed="max" from="462876181#0" to="51574172"/>
    <trip id="truck301" type="truck_truck" depart="838.67" departLane="best" departSpeed="max" from="26539416#0" to="172838888"/>
    <trip id="truck302" type="truck_truck" depart="841.45" departLane="best" departSpeed="max" from="26538887" to="-22278551#2"/>
    <trip id="truck303" type="truck_truck" depart="844.24" departLane="best" departSpeed="max" from="26538887" to="476977623#2"/>
    <trip id="truck304" type="truck_truck" depart="847.02" departLane="best" from="226623628#0" to="-476977623#2"/>
    <trip id="truck307" type="truck_truck" depart="855.38" departLane="best" from="410083050#0" to="410083050#3"/>
    <trip id="truck309" type="truck_truck" depart="860.96" departLane="best" from="487890810#1" to="93248659#3"/>
    <trip id="truck311" type="truck_truck" depart="866.53" departLane="best" from="39354097#3" to="-93248675#1"/>
    <trip id="truck317" type="truck_truck" depart="883.25" departLane="best" departSpeed="max" from="462876181#0" to="-21619595#0"/>
    <trip id="truck318" type="truck_truck" depart="886.03" departLane="best" departSpeed="max" from="221650688#0" to="-172841675#1"/>
    <trip id="truck319" type="truck_truck" depart="888.82" departLane="best" departSpeed="max" from="624426689" to="410083050#3"/>
    <trip id="truck320" type="truck_truck" depart="891.60" departLane="best" departSpeed="max" from="462876181#0" to="-21619595#0"/>
    <trip id="truck321" type="truck_truck" depart="894.39" departLane="best" departSpeed="max" from="26538887" to="221651079#1"/>
    <trip id="truck323" type="truck_truck" depart="899.96" departLane="best" departSpeed="max" from="-40336330#4" to="-21619598#0"/>
    <trip id="truck324" type="truck_truck" depart="902.75" departLane="best" departSpeed="max" from="130504338#0" to="463340064#0"/>
    <trip id="truck325" type="truck_truck" depart="905.54" departLane="best" departSpeed="max" from="47035722" to="172841677#0"/>
    <trip id="truck327" type="truck_truck" depart="911.11" departLane="best" departSpeed="max" from="47035722" to="336936790#2"/>
    <trip id="truck328" type="truck_truck" depart="913.89" departLane="best" from="47034517" to="-21619595#2"/>
    <trip id="truck332" type="truck_truck" depart="925.04" departLane="best" from="476977623#3" to="40336330#0"/>
    <trip id="truck333" type="truck_truck" depart="927.83" departLane="best" departSpeed="max" from="-40336330#4" to="661272295"/>
    <trip id="truck335" type="truck_truck" depart="933.40" departLane="best" from="482585017" to="22791764"/>
    <trip id="truck336" type="truck_truck" depart="936.18" departLane="best" from="-487890819" to="-21619595#0"/>
    <trip id="truck337" type="truck_truck" depart="938.97" departLane="best" from="410083050#1" to="40336330#2"/>