<?xml version="1.0" encoding="UTF-8"?>

<!-- generated on Sat Aug  8 14:35:12 2020 by Eclipse SUMO duarouter Version 1.6.0
<configuration xmlns:xsi="http://www.w3.org/2001/XMLSchema-instance" xsi:noNamespaceSchemaLocation="http://sumo.dlr.de/xsd/duarouterConfiguration.xsd">

    <input>
        <net-file value="/home/fede/sumo-1.6.0/tools/2020-08-08-14-35-06/osm.net.xml"/>
        <route-files value="/home/fede/sumo-1.6.0/tools/2020-08-08-14-35-06/osm.passenger.trips.xml"/>
    </input>

    <output>
        <output-file value="/home/fede/sumo-1.6.0/tools/2020-08-08-14-35-06/osm.passenger.trips.xml.tmp"/>
        <write-trips value="true"/>
    </output>

    <time>
        <begin value="0"/>
        <end value="3600.0"/>
    </time>

    <report>
        <no-warnings value="true"/>
        <ignore-errors value="true"/>
        <no-step-log value="true"/>
    </report>

</configuration>
-->

<routes xmlns:xsi="http://www.w3.org/2001/XMLSchema-instance" xsi:noNamespaceSchemaLocation="http://sumo.dlr.de/xsd/routes_file.xsd">
    <vType id="veh_passenger" vClass="passenger"/>
    <trip id="veh2" type="veh_passenger" depart="0.73" departLane="best" from="40336328#1" to="-21619598#0"/>
    <trip id="veh3" type="veh_passenger" depart="1.09" departLane="best" from="-21619598#1" to="172841677#2"/>
    <trip id="veh5" type="veh_passenger" depart="1.82" departLane="best" departSpeed="max" from="21619598#0" to="503279376#1"/>
    <trip id="veh8" type="veh_passenger" depart="2.91" departLane="best" departSpeed="max" from="26539416#0" to="172838885#0"/>
    <trip id="veh10" type="veh_passenger" depart="3.63" departLane="best" from="-93248675#1" to="-476977623#0"/>
    <trip id="veh13" type="veh_passenger" depart="4.72" departLane="best" departSpeed="max" from="47035722" to="93248659#3"/>
    <trip id="veh14" type="veh_passenger" depart="5.09" departLane="best" departSpeed="max" from="336936790#0" to="482585017"/>
    <trip id="veh16" type="veh_passenger" depart="5.81" departLane="best" departSpeed="max" from="624426689" to="503279376#1"/>
    <trip id="veh17" type="veh_passenger" depart="6.18" departLane="best" from="-509521738#1" to="21630401"/>
    <trip id="veh20" type="veh_passenger" depart="7.27" departLane="best" departSpeed="max" from="336936790#0" to="172841677#2"/>
    <trip id="veh21" type="veh_passenger" depart="7.63" departLane="best" from="221651079#0" to="93248635#2"/>
    <trip id="veh24" type="veh_passenger" depart="8.72" departLane="best" from="93248659#1" to="503279376#1"/>
    <trip id="veh27" type="veh_passenger" depart="9.81" departLane="best" departSpeed="max" from="21619595#0" to="93248635#2"/>
    <trip id="veh28" type="veh_passenger" depart="10.18" departLane="best" departSpeed="max" from="625454215" to="410083050#3"/>
    <trip id="veh29" type="veh_passenger" depart="10.54" departLane="best" departSpeed="max" from="221650688#0" to="226621813#1"/>
    <trip id="veh31" type="veh_passenger" depart="11.27" departLane="best" departSpeed="max" from="39354097#0" to="21619592#4"/>
    <trip id="veh32" type="veh_passenger" depart="11.63" departLane="best" from="93248675#0" to="463340064#0"/>
    <trip id="veh33" type="veh_passenger" depart="11.99" departLane="best" departSpeed="max" from="130504338#0" to="503279376#1"/>
    <trip id="veh36" type="veh_passenger" depart="13.08" departLane="best" from="93248666#1" to="47034515"/>
    <trip id="veh37" type="veh_passenger" depart="13.45" departLane="best" from="686503876" to="661272295"/>
    <trip id="veh40" type="veh_passenger" depart="14.54" departLane="best" from="221650688#1" to="503279376#1"/>
    <trip id="veh41" type="veh_passenger" depart="14.90" departLane="best" departSpeed="max" from="130504338#0" to="410083050#1"/>
    <trip id="veh42" type="veh_passenger" depart="15.26" departLane="best" from="451200193#2" to="93248635#2"/>
    <trip id="veh44" type="veh_passenger" depart="15.99" departLane="best" from="463340064#1" to="172838892"/>
    <trip id="veh45" type="veh_passenger" depart="16.35" departLane="best" departSpeed="max" from="625454215" to="661272295"/>
    <trip id="veh50" type="veh_passenger" depart="18.17" departLane="best" from="-172841673" to="22791764"/>
    <trip id="veh51" type="veh_passenger" depart="18.53" departLane="best" departSpeed="max" from="-172841677#2" to="93248635#2"/>
    <trip id="veh52" type="veh_passenger" depart="18.90" departLane="best" departSpeed="max" from="624426689" to="553137600"/>
    <trip id="veh53" type="veh_passenger" depart="19.26" departLane="best" departSpeed="max" from="26538887" to="-22278551#0"/>
    <trip id="veh54" type="veh_passenger" depart="19.62" departLane="best" departSpeed="max" from="624426689" to="93248635#2"/>
    <trip id="veh55" type="veh_passenger" depart="19.99" departLane="best" from="-792754346" to="451200196#1"/>
    <trip id="veh56" type="veh_passenger" depart="20.35" departLane="best" from="-47034517" to="51574172"/>
    <trip id="veh58" type="veh_passenger" depart="21.08" departLane="best" departSpeed="max" from="462876181#0" to="482585016"/>
    <trip id="veh59" type="veh_passenger" depart="21.44" departLane="best" departSpeed="max" from="221650688#0" to="661272295"/>
    <trip id="veh60" type="veh_passenger" depart="21.81" departLane="best" from="40336329" to="172841677#2"/>
    <trip id="veh61" type="veh_passenger" depart="22.17" departLane="best" from="93248666#0" to="503279376#1"/>
    <trip id="veh63" type="veh_passenger" depart="22.90" departLane="best" departSpeed="max" from="142310817#0" to="21619598#1"/>
    <trip id="veh64" type="veh_passenger" depart="23.26" departLane="best" departSpeed="max" from="26539416#0" to="503279376#1"/>
    <trip id="veh65" type="veh_passenger" depart="23.62" departLane="best" from="-476977623#1" to="503279376#1"/>
    <trip id="veh69" type="veh_passenger" depart="25.08" departLane="best" departSpeed="max" from="21619595#0" to="-93248666#0"/>
    <trip id="veh71" type="veh_passenger" depart="25.80" departLane="best" departSpeed="max" from="462876181#0" to="51574172"/>
    <trip id="veh73" type="veh_passenger" depart="26.53" departLane="best" departSpeed="max" from="130504338#0" to="410083050#0"/>
    <trip id="veh74" type="veh_passenger" depart="26.89" departLane="best" from="40336329" to="410083050#3"/>
    <trip id="veh75" type="veh_passenger" depart="27.26" departLane="best" from="93248643#1" to="-476977623#1"/>
    <trip id="veh76" type="veh_passenger" depart="27.62" departLane="best" departSpeed="max" from="39354097#0" to="22791764"/>
    <trip id="veh77" type="veh_passenger" depart="27.98" departLane="best" departSpeed="max" from="624426689" to="226623628#0"/>
    <trip id="veh78" type="veh_passenger" depart="28.35" departLane="best" departSpeed="max" from="21619592#0" to="410083050#3"/>
    <trip id="veh80" type="veh_passenger" depart="29.07" departLane="best" departSpeed="max" from="221650688#0" to="93248635#2"/>
    <trip id="veh81" type="veh_passenger" depart="29.44" departLane="best" departSpeed="max" from="47035722" to="-21619598#2"/>
    <trip id="veh83" type="veh_passenger" depart="30.16" departLane="best" from="686503876" to="93248635#2"/>
    <trip id="veh85" type="veh_passenger" depart="30.89" departLane="best" departSpeed="max" from="462876181#0" to="19787468"/>
    <trip id="veh86" type="veh_passenger" depart="31.25" departLane="best" departSpeed="max" from="39354097#0" to="-22278551#1"/>
    <trip id="veh87" type="veh_passenger" depart="31.62" departLane="best" from="336936790#1" to="93248659#3"/>
    <trip id="veh88" type="veh_passenger" depart="31.98" departLane="best" departSpeed="max" from="221650688#0" to="51574172"/>
    <trip id="veh89" type="veh_passenger" depart="32.34" departLane="best" from="451200196#0" to="40336330#2"/>
    <trip id="veh92" type="veh_passenger" depart="33.44" departLane="best" from="686503876" to="503279376#1"/>
    <trip id="veh93" type="veh_passenger" depart="33.80" departLane="best" departSpeed="max" from="47035722" to="51574172"/>
    <trip id="veh94" type="veh_passenger" depart="34.16" departLane="best" departSpeed="max" from="-40336330#4" to="503279376#1"/>
    <trip id="veh95" type="veh_passenger" depart="34.53" departLane="best" from="463340064#2" to="657044727#0"/>
    <trip id="veh96" type="veh_passenger" depart="34.89" departLane="best" from="-509521738#1" to="172841673"/>
    <trip id="veh98" type="veh_passenger" depart="35.62" departLane="best" departSpeed="max" from="624426689" to="226621813#0"/>
    <trip id="veh99" type="veh_passenger" depart="35.98" departLane="best" departSpeed="max" from="487890819" to="503279376#1"/>
    <trip id="veh100" type="veh_passenger" depart="36.34" departLane="best" from="39354097#2" to="503279376#1"/>
    <trip id="veh101" type="veh_passenger" depart="36.71" departLane="best" departSpeed="max" from="47035722" to="93248635#2"/>
    <trip id="veh103" type="veh_passenger" depart="37.43" departLane="best" from="21619598#1" to="275806358"/>
    <trip id="veh104" type="veh_passenger" depart="37.80" departLane="best" departSpeed="max" from="26538887" to="51574172"/>
    <trip id="veh105" type="veh_passenger" depart="38.16" departLane="best" from="-476977623#2" to="410083050#3"/>
    <trip id="veh106" type="veh_passenger" depart="38.52" departLane="best" from="-476977623#2" to="19787468"/>
    <trip id="veh107" type="veh_passenger" depart="38.89" departLane="best" departSpeed="max" from="221650688#0" to="93248635#2"/>
    <trip id="veh108" type="veh_passenger" depart="39.25" departLane="best" departSpeed="max" from="624426689" to="661272295"/>
    <trip id="veh109" type="veh_passenger" depart="39.61" departLane="best" departSpeed="max" from="336936790#0" to="172838885#0"/>
    <trip id="veh111" type="veh_passenger" depart="40.34" departLane="best" departSpeed="max" from="487890819" to="93248659#3"/>
    <trip id="veh113" type="veh_passenger" depart="41.07" departLane="best" departSpeed="max" from="624426686" to="22718802"/>
    <trip id="veh115" type="veh_passenger" depart="41.79" departLane="best" departSpeed="max" from="142310817#0" to="-792754346"/>
    <trip id="veh116" type="veh_passenger" depart="42.16" departLane="best" departSpeed="max" from="130504338#0" to="482585017"/>
    <trip id="veh117" type="veh_passenger" depart="42.52" departLane="best" from="22278551#0" to="503279376#1"/>
    <trip id="veh118" type="veh_passenger" depart="42.88" departLane="best" from="553137600" to="172841677#2"/>
    <trip id="veh124" type="veh_passenger" depart="45.06" departLane="best" from="410083050#0" to="-21619595#0"/>
    <trip id="veh125" type="veh_passenger" depart="45.43" departLane="best" from="-476977623#4" to="661272295"/>
    <trip id="veh126" type="veh_passenger" depart="45.79" departLane="best" departSpeed="max" from="625454215" to="476977623#3"/>
    <trip id="veh128" type="veh_passenger" depart="46.52" departLane="best" departSpeed="max" from="142310817#0" to="-93248666#0"/>
    <trip id="veh130" type="veh_passenger" depart="47.25" departLane="best" departSpeed="max" from="221650688#0" to="-487890817"/>
    <trip id="veh132" type="veh_passenger" depart="47.97" departLane="best" departSpeed="max" from="39354097#0" to="503279376#1"/>
    <trip id="veh133" type="veh_passenger" depart="48.34" departLane="best" from="142310817#2" to="93248635#2"/>
    <trip id="veh134" type="veh_passenger" depart="48.70" departLane="best" departSpeed="max" from="624426689" to="93248659#3"/>
    <trip id="veh136" type="veh_passenger" depart="49.43" departLane="best" from="-21619595#1" to="51574165-AddedOnRampEdge"/>
    <trip id="veh137" type="veh_passenger" depart="49.79" departLane="best" departSpeed="max" from="26539416#0" to="93248635#2"/>
    <trip id="veh139" type="veh_passenger" depart="50.52" departLane="best" departSpeed="max" from="624426686" to="22718802"/>
    <trip id="veh141" type="veh_passenger" depart="51.24" departLane="best" departSpeed="max" from="624426689" to="657044728"/>
    <trip id="veh145" type="veh_passenger" depart="52.70" departLane="best" departSpeed="max" from="26539416#0" to="661272295"/>
    <trip id="veh148" type="veh_passenger" depart="53.79" departLane="best" from="93248643#0" to="47034517"/>
    <trip id="veh149" type="veh_passenger" depart="54.15" departLane="best" departSpeed="max" from="652398702" to="-792754346"/>
    <trip id="veh150" type="veh_passenger" depart="54.51" departLane="best" from="686503876" to="172838892"/>
    <trip id="veh152" type="veh_passenger" depart="55.24" departLane="best" departSpeed="max" from="130504338#0" to="410083050#1"/>
    <trip id="veh154" type="veh_passenger" depart="55.97" departLane="best" departSpeed="max" from="487890819" to="463340064#1"/>
    <trip id="veh156" type="veh_passenger" depart="56.69" departLane="best" from="-172841675#0" to="93248635#2"/>
    <trip id="veh159" type="veh_passenger" depart="57.78" departLane="best" departSpeed="max" from="26538887" to="625454211"/>
    <trip id="veh162" type="veh_passenger" depart="58.87" departLane="best" departSpeed="max" from="142310817#0" to="40336330#2"/>
    <trip id="veh163" type="veh_passenger" depart="59.24" departLane="best" departSpeed="max" from="652398702" to="51574164#1"/>
    <trip id="veh164" type="veh_passenger" depart="59.60" departLane="best" departSpeed="max" from="625454215" to="503279376#1"/>
    <trip id="veh167" type="veh_passenger" depart="60.69" departLane="best" from="410083050#1" to="503279376#1"/>
    <trip id="veh169" type="veh_passenger" depart="61.42" departLane="best" departSpeed="max" from="462876181#0" to="661272297"/>
    <trip id="veh171" type="veh_passenger" depart="62.15" departLane="best" from="-625454211" to="47034515"/>
    <trip id="veh175" type="veh_passenger" depart="63.60" departLane="best" departSpeed="max" from="39354097#0" to="503279376#1"/>
    <trip id="veh178" type="veh_passenger" depart="64.69" departLane="best" departSpeed="max" from="553269822" to="51574172"/>
    <trip id="veh179" type="veh_passenger" depart="65.05" departLane="best" departSpeed="max" from="130504338#0" to="40336330#2"/>
    <trip id="veh180" type="veh_passenger" depart="65.42" departLane="best" departSpeed="max" from="21619592#0" to="93248635#2"/>
    <trip id="veh181" type="veh_passenger" depart="65.78" departLane="best" departSpeed="max" from="47035722" to="-21619598#2"/>
    <trip id="veh182" type="veh_passenger" depart="66.14" departLane="best" departSpeed="max" from="221650688#0" to="625454211"/>
    <trip id="veh185" type="veh_passenger" depart="67.23" departLane="best" departSpeed="max" from="487890819" to="93248635#2"/>
    <trip id="veh186" type="veh_passenger" depart="67.60" departLane="best" departSpeed="max" from="624426689" to="503279376#1"/>
    <trip id="veh187" type="veh_passenger" depart="67.96" departLane="best" from="553137600" to="462876181#3"/>
    <trip id="veh189" type="veh_passenger" depart="68.69" departLane="best" from="625454211" to="51574172"/>
    <trip id="veh191" type="veh_passenger" depart="69.41" departLane="best" from="21630405" to="503279376#1"/>
    <trip id="veh195" type="veh_passenger" depart="70.87" departLane="best" from="22278551#0" to="22791764"/>
    <trip id="veh196" type="veh_passenger" depart="71.23" departLane="best" departSpeed="max" from="47035722" to="-93248666#1"/>
    <trip id="veh199" type="veh_passenger" depart="72.32" departLane="best" departSpeed="max" from="39354097#0" to="47035476#0"/>
    <trip id="veh200" type="veh_passenger" depart="72.69" departLane="best" departSpeed="max" from="39354097#0" to="172841677#2"/>
    <trip id="veh201" type="veh_passenger" depart="73.05" departLane="best" from="39354097#3" to="661272297"/>
    <trip id="veh203" type="veh_passenger" depart="73.78" departLane="best" from="624426687" to="51574172"/>
    <trip id="veh204" type="veh_passenger" depart="74.14" departLane="best" from="336936790#2" to="-172841677#1"/>
    <trip id="veh205" type="veh_passenger" depart="74.50" departLane="best" from="265630490#0" to="51574172"/>
    <trip id="veh207" type="veh_passenger" depart="75.23" departLane="best" from="39354097#2" to="51574172"/>
    <trip id="veh208" type="veh_passenger" depart="75.59" departLane="best" departSpeed="max" from="47035722" to="503279376#1"/>
    <trip id="veh211" type="veh_passenger" depart="76.68" departLane="best" departSpeed="max" from="39354097#0" to="172838892"/>
    <trip id="veh212" type="veh_passenger" depart="77.05" departLane="best" departSpeed="max" from="462876181#0" to="-93248666#0"/>
    <trip id="veh213" type="veh_passenger" depart="77.41" departLane="best" departSpeed="max" from="487890819" to="-21619595#1"/>
    <trip id="veh214" type="veh_passenger" depart="77.77" departLane="best" departSpeed="max" from="39213960" to="487890810#1"/>
    <trip id="veh215" type="veh_passenger" depart="78.14" departLane="best" from="-21619598#1" to="503279376#1"/>
    <trip id="veh216" type="veh_passenger" depart="78.50" departLane="best" departSpeed="max" from="142310817#0" to="410083050#3"/>
    <trip id="veh218" type="veh_passenger" depart="79.23" departLane="best" departSpeed="max" from="21619595#0" to="22791764"/>
    <trip id="veh221" type="veh_passenger" depart="80.32" departLane="best" departSpeed="max" from="-172841677#2" to="47035474#0"/>
    <trip id="veh222" type="veh_passenger" depart="80.68" departLane="best" from="93248675#2" to="22791764"/>
    <trip id="veh223" type="veh_passenger" depart="81.04" departLane="best" departSpeed="max" from="-172841677#2" to="142310817#2"/>
    <trip id="veh225" type="veh_passenger" depart="81.77" departLane="best" departSpeed="max" from="47035722" to="21619592#3"/>
    <trip id="veh226" type="veh_passenger" depart="82.13" departLane="best" from="172841673" to="503279376#1"/>
    <trip id="veh229" type="veh_passenger" depart="83.22" departLane="best" departSpeed="max" from="130504338#0" to="-21619595#0"/>
    <trip id="veh233" type="veh_passenger" depart="84.68" departLane="best" departSpeed="max" from="51574892" to="503279376#1"/>
    <trip id="veh234" type="veh_passenger" depart="85.04" departLane="best" departSpeed="max" from="130504338#0" to="51574172"/>
    <trip id="veh236" type="veh_passenger" depart="85.77" departLane="best" departSpeed="max" from="142310817#0" to="93248659#3"/>
    <trip id="veh238" type="veh_passenger" depart="86.50" departLane="best" from="410083050#1" to="23634395"/>
    <trip id="veh239" type="veh_passenger" depart="86.86" departLane="best" from="47034517" to="22791764"/>
    <trip id="veh240" type="veh_passenger" depart="87.22" departLane="best" departSpeed="max" from="624426686" to="51574182"/>
    <trip id="veh241" type="veh_passenger" depart="87.59" departLane="best" departSpeed="max" from="130504338#0" to="93248643#0"/>
    <trip id="veh245" type="veh_passenger" depart="89.04" departLane="best" departSpeed="max" from="624426689" to="22278551#2"/>
    <trip id="veh246" type="veh_passenger" depart="89.40" departLane="best" departSpeed="max" from="462876181#0" to="503279376#1"/>
    <trip id="veh248" type="veh_passenger" depart="90.13" departLane="best" departSpeed="max" from="26539416#0" to="661272295"/>
    <trip id="veh249" type="veh_passenger" depart="90.49" departLane="best" departSpeed="max" from="-172841677#2" to="93248635#2"/>
    <trip id="veh251" type="veh_passenger" depart="91.22" departLane="best" departSpeed="max" from="462876181#0" to="51574172"/>
    <trip id="veh252" type="veh_passenger" depart="91.58" departLane="best" departSpeed="max" from="51574892" to="503279376#1"/>
    <trip id="veh253" type="veh_passenger" depart="91.95" departLane="best" departSpeed="max" from="462876181#0" to="51574172"/>
    <trip id="veh254" type="veh_passenger" depart="92.31" departLane="best" from="-93248675#1" to="21619595#2"/>
    <trip id="veh256" type="veh_passenger" depart="93.04" departLane="best" departSpeed="max" from="47035722" to="40336330#2"/>
    <trip id="veh258" type="veh_passenger" depart="93.76" departLane="best" departSpeed="max" from="221650688#0" to="-93248666#0"/>
    <trip id="veh259" type="veh_passenger" depart="94.13" departLane="best" departSpeed="max" from="21619592#0" to="-93248666#0"/>
    <trip id="veh260" type="veh_passenger" depart="94.49" departLane="best" departSpeed="max" from="47035722" to="51574172"/>
    <trip id="veh261" type="veh_passenger" depart="94.85" departLane="best" departSpeed="max" from="21619592#0" to="21619592#2"/>
    <trip id="veh265" type="veh_passenger" depart="96.31" departLane="best" departSpeed="max" from="21619592#0" to="-21619595#0"/>
    <trip id="veh267" type="veh_passenger" depart="97.03" departLane="best" departSpeed="max" from="624426689" to="451200196#1"/>
    <trip id="veh268" type="veh_passenger" depart="97.40" departLane="best" departSpeed="max" from="624426689" to="503279376#1"/>
    <trip id="veh269" type="veh_passenger" depart="97.76" departLane="best" departSpeed="max" from="462876181#0" to="410083050#3"/>
    <trip id="veh270" type="veh_passenger" depart="98.12" departLane="best" departSpeed="max" from="21619592#0" to="-21619598#2"/>
    <trip id="veh271" type="veh_passenger" depart="98.49" departLane="best" departSpeed="max" from="652398702" to="451110314"/>
    <trip id="veh273" type="veh_passenger" depart="99.22" departLane="best" from="-476977623#3" to="503279376#1"/>
    <trip id="veh278" type="veh_passenger" depart="101.03" departLane="best" departSpeed="max" from="47035722" to="410083050#3"/>
    <trip id="veh279" type="veh_passenger" depart="101.40" departLane="best" departSpeed="max" from="487890819" to="503279376#1"/>
    <trip id="veh281" type="veh_passenger" depart="102.12" departLane="best" departSpeed="max" from="21619595#0" to="172841677#2"/>
    <trip id="veh284" type="veh_passenger" depart="103.21" departLane="best" from="-172841675#1" to="410083050#3"/>
    <trip id="veh291" type="veh_passenger" depart="105.76" departLane="best" from="40336330#0" to="476977623#2"/>
    <trip id="veh296" type="veh_passenger" depart="107.57" departLane="best" departSpeed="max" from="652398702" to="451200196#1"/>
    <trip id="veh298" type="veh_passenger" depart="108.30" departLane="best" from="-238233698" to="410083050#0"/>
    <trip id="veh300" type="veh_passenger" depart="109.03" departLane="best" from="-238233698" to="51574172"/>
    <trip id="veh301" type="veh_passenger" depart="109.39" departLane="best" departSpeed="max" from="462876181#0" to="503279376#1"/>
    <trip id="veh303" type="veh_passenger" depart="110.12" departLane="best" from="487890810#1" to="503279376#1"/>
    <trip id="veh304" type="veh_passenger" depart="110.48" departLane="best" from="462876181#2" to="-40336336#1"/>
    <trip id="veh305" type="veh_passenger" depart="110.84" departLane="best" from="26539416#2" to="22791764"/>
    <trip id="veh309" type="veh_passenger" depart="112.30" departLane="best" from="451200196#0" to="22791764"/>
    <trip id="veh310" type="veh_passenger" depart="112.66" departLane="best" departSpeed="max" from="26538887" to="93248659#2"/>
    <trip id="veh311" type="veh_passenger" depart="113.03" departLane="best" departSpeed="max" from="39354097#0" to="463340064#2"/>
    <trip id="veh312" type="veh_passenger" depart="113.39" departLane="best" from="93248659#0" to="503279376#1-AddedOnRampEdge"/>
    <trip id="veh313" type="veh_passenger" depart="113.75" departLane="best" departSpeed="max" from="47035722" to="40336330#2"/>
    <trip id="veh314" type="veh_passenger" depart="114.12" departLane="best" departSpeed="max" from="21619592#0" to="23634395"/>
    <trip id="veh317" type="veh_passenger" depart="115.21" departLane="best" departSpeed="max" from="47035722" to="93248635#2"/>
    <trip id="veh318" type="veh_passenger" depart="115.57" departLane="best" departSpeed="max" from="142310817#0" to="93248659#3"/>
    <trip id="veh319" type="veh_passenger" depart="115.93" departLane="best" departSpeed="max" from="487890819" to="221651080#0"/>
    <trip id="veh320" type="veh_passenger" depart="116.30" departLane="best" departSpeed="max" from="47035722" to="-451110314"/>
    <trip id="veh321" type="veh_passenger" depart="116.66" departLane="best" from="93248663#1" to="792754347"/>
    <trip id="veh322" type="veh_passenger" depart="117.02" departLane="best" departSpeed="max" from="462876181#0" to="-93248647#1"/>
    <trip id="veh326" type="veh_passenger" depart="118.48" departLane="best" departSpeed="max" from="47035722" to="26539416#2"/>
    <trip id="veh327" type="veh_passenger" depart="118.84" departLane="best" departSpeed="max" from="624426689" to="661272295"/>
    <trip id="veh328" type="veh_passenger" depart="119.20" departLane="best" from="226621813#0" to="51574172"/>
    <trip id="veh329" type="veh_passenger" depart="119.57" departLane="best" departSpeed="max" from="39354097#0" to="93248635#2"/>
    <trip id="veh332" type="veh_passenger" depart="120.66" departLane="best" departSpeed="max" from="47035722" to="22791764"/>
    <trip id="veh333" type="veh_passenger" depart="121.02" departLane="best" departSpeed="max" from="47035722" to="476977623#1"/>
    <trip id="veh334" type="veh_passenger" depart="121.38" departLane="best" from="451200196#0" to="22791764"/>
    <trip id="veh338" type="veh_passenger" depart="122.84" departLane="best" departSpeed="max" from="487890819" to="661272295"/>
    <trip id="veh339" type="veh_passenger" depart="123.20" departLane="best" departSpeed="max" from="624426689" to="410083050#3"/>
    <trip id="veh340" type="veh_passenger" depart="123.56" departLane="best" departSpeed="max" from="47035722" to="410083050#3"/>
    <trip id="veh342" type="veh_passenger" depart="124.29" departLane="best" departSpeed="max" from="462876181#0" to="93248659#1"/>
    <trip id="veh345" type="veh_passenger" depart="125.38" departLane="best" from="336936790#2" to="22791764"/>
    <trip id="veh346" type="veh_passenger" depart="125.75" departLane="best" from="553137600" to="51574172"/>
    <trip id="veh347" type="veh_passenger" depart="126.11" departLane="best" departSpeed="max" from="624426689" to="-21619598#0"/>
    <trip id="veh348" type="veh_passenger" depart="126.47" departLane="best" from="-47034517" to="503279376#1"/>
    <trip id="veh349" type="veh_passenger" depart="126.84" departLane="best" departSpeed="max" from="652398702" to="93248675#1"/>
    <trip id="veh351" type="veh_passenger" depart="127.56" departLane="best" departSpeed="max" from="130504338#0" to="503279376#1"/>
    <trip id="veh352" type="veh_passenger" depart="127.93" departLane="best" departSpeed="max" from="624426689" to="410083050#3"/>
    <trip id="veh354" type="veh_passenger" depart="128.65" departLane="best" departSpeed="max" from="-40336330#4" to="51574172"/>
    <trip id="veh355" type="veh_passenger" depart="129.02" departLane="best" departSpeed="max" from="142310817#0" to="47034515"/>
    <trip id="veh356" type="veh_passenger" depart="129.38" departLane="best" from="476977623#1" to="51574172"/>
    <trip id="veh358" type="veh_passenger" depart="130.11" departLane="best" departSpeed="max" from="624426689" to="503279376#1"/>
    <trip id="veh359" type="veh_passenger" depart="130.47" departLane="best" from="21619598#3" to="792754347"/>
    <trip id="veh360" type="veh_passenger" depart="130.83" departLane="best" departSpeed="max" from="142310817#0" to="410083050#3"/>
    <trip id="veh364" type="veh_passenger" depart="132.29" departLane="best" from="172838885#0" to="410083050#3"/>
    <trip id="veh365" type="veh_passenger" depart="132.65" departLane="best" departSpeed="max" from="26539416#0" to="503279376#1"/>
    <trip id="veh366" type="veh_passenger" depart="133.01" departLane="best" from="51574158" to="40336330#2"/>
    <trip id="veh367" type="veh_passenger" depart="133.38" departLane="best" departSpeed="max" from="221650688#0" to="625454207"/>
    <trip id="veh368" type="veh_passenger" depart="133.74" departLane="best" departSpeed="max" from="21619595#0" to="26539416#2"/>
    <trip id="veh369" type="veh_passenger" depart="134.10" departLane="best" departSpeed="max" from="462876181#0" to="221651079#1"/>
    <trip id="veh370" type="veh_passenger" depart="134.47" departLane="best" from="482585016" to="503279376#1"/>
    <trip id="veh373" type="veh_passenger" depart="135.56" departLane="best" from="22278551#2" to="487890810#1"/>
    <trip id="veh374" type="veh_passenger" depart="135.92" departLane="best" departSpeed="max" from="-40336330#4" to="503279376#1"/>
    <trip id="veh375" type="veh_passenger" depart="136.28" departLane="best" from="463340064#0" to="661272297"/>
    <trip id="veh376" type="veh_passenger" depart="136.65" departLane="best" departSpeed="max" from="487890819" to="22791764"/>
    <trip id="veh377" type="veh_passenger" depart="137.01" departLane="best" from="509521738#1" to="503279376#1"/>
    <trip id="veh382" type="veh_passenger" depart="138.83" departLane="best" departSpeed="max" from="23634363" to="51574172"/>
    <trip id="veh383" type="veh_passenger" depart="139.19" departLane="best" departSpeed="max" from="21619592#0" to="-93248666#0"/>
    <trip id="veh384" type="veh_passenger" depart="139.56" departLane="best" departSpeed="max" from="47035722" to="93248659#3"/>
    <trip id="veh385" type="veh_passenger" depart="139.92" departLane="best" departSpeed="max" from="47035722" to="792754347"/>
    <trip id="veh386" type="veh_passenger" depart="140.28" departLane="best" departSpeed="max" from="624426686" to="22718802"/>
    <trip id="veh389" type="veh_passenger" depart="141.37" departLane="best" departSpeed="max" from="26539416#0" to="-792754346"/>
    <trip id="veh390" type="veh_passenger" depart="141.74" departLane="best" from="661272297" to="661272295"/>
    <trip id="veh393" type="veh_passenger" depart="142.83" departLane="best" departSpeed="max" from="336936790#0" to="51574172"/>
    <trip id="veh394" type="veh_passenger" depart="143.19" departLane="best" departSpeed="max" from="51574892" to="503279376#1"/>