<?xml version="1.0" encoding="UTF-8"?>

<!-- generated on Sat Aug  8 14:35:11 2020 by Eclipse SUMO polyconvert Version 1.6.0
<configuration xmlns:xsi="http://www.w3.org/2001/XMLSchema-instance" xsi:noNamespaceSchemaLocation="http://sumo.dlr.de/xsd/polyconvertConfiguration.xsd">

    <input>
        <net-file value="osm.net.xml"/>
        <osm-files value="osm_bbox.osm.xml"/>
        <osm.keep-full-type value="true"/>
        <type-file value="/usr/share/sumo/data/typemap/osmPolyconvert.typ.xml"/>
    </input>

    <output>
        <output-file value="osm.poly.xml"/>
    </output>

    <processing>
        <poi-layer-offset value="5"/>
    </processing>

    <report>
        <verbose value="true"/>
    </report>

</configuration>
-->

<additional xmlns:xsi="http://www.w3.org/2001/XMLSchema-instance" xsi:noNamespaceSchemaLocation="http://sumo.dlr.de/xsd/additional_file.xsd">
    <location netOffset="-364763.86,3836248.51" convBoundary="-2397.47,-233.15,12312.66,4276.29" origBoundary="-58.501604,-34.662275,-58.340958,-34.622045" projParameter="+proj=utm +zone=21 +ellps=WGS84 +datum=WGS84 +units=m +no_defs"/>

    <poly id="114001991" type="leisure.pitch" color="207,245,201" fill="1" layer="-2.00" shape="1393.386761,849.661574 1347.686560,800.036200 1421.667860,732.523259 1467.367926,782.159360 1393.386761,849.661574"/>
    <poly id="114001991#1" type="sport.soccer" color="79,230,125" fill="1" layer="-2.00" shape="1393.386761,849.661574 1347.686560,800.036200 1421.667860,732.523259 1467.367926,782.159360 1393.386761,849.661574"/>
    <poly id="205351075" type="leisure.sports_centre" color="207,245,201" fill="1" layer="-2.00" shape="1701.323655,602.984499 1613.510622,518.064639 1533.970869,444.910923 1454.983155,361.581447 1440.903986,353.989716 1415.795306,356.066123 1397.404620,365.150562 1105.735645,645.986304 1242.755899,980.088747 1244.990694,1012.433936 1580.277757,710.883062 1701.323655,602.984499"/>
    <poly id="242365267" type="leisure.park" color="207,245,201" fill="1" layer="-2.00" shape="1038.579607,1069.325153 1043.751412,1086.238908 1048.655030,1098.900290 1058.650418,1115.063282 1064.605132,1123.524736 1068.638194,1124.182341 1071.327063,1124.609654 1141.164545,1059.334741 1146.779618,1058.362491 1153.729942,1061.391875 1183.097521,1096.959679 1186.485042,1095.988340 1234.634075,1053.359545 1235.011854,1047.541410 1230.205966,1043.289748 1041.796293,1066.232695 1038.579607,1069.325153"/>
    <poly id="303057224" type="leisure.park" color="207,245,201" fill="1" layer="-2.00" shape="685.255328,1047.011645 702.363808,1041.137813 720.518671,1030.764494 733.363591,1018.660988 741.693224,1004.395185 745.967116,980.963248 745.072298,958.066114 742.329945,943.694486 608.544779,1064.129739 685.255328,1047.011645"/>
    <poly id="435802631" type="building.roof" color="255,230,230" fill="1" layer="-1.00" shape="874.287538,1019.148786 936.931414,978.973125 926.199850,962.399939 863.565197,1002.575659 874.287538,1019.148786"/>
    <poly id="435804691" type="leisure.swimming_pool" color="207,245,201" fill="1" layer="-2.00" shape="1202.985459,862.351361 1212.960867,879.889384 1256.325435,855.460583 1246.349977,837.922608 1202.985459,862.351361"/>
    <poly id="435804693" type="leisure.swimming_pool" color="207,245,201" fill="1" layer="-2.00" shape="1238.420000,894.191238 1243.918384,904.409679 1260.408826,895.597424 1254.901265,885.378859 1238.420000,894.191238"/>
    <poly id="435804695" type="amenity.bus_station" color="237,199,199" fill="1" layer="-1.00" shape="1146.873526,993.194777 1161.219249,987.535119 1160.890778,986.798237 1157.703023,979.697046 1118.831227,892.931782 1128.892482,877.415163 1095.630799,797.630855 1088.459504,783.328108 1074.355785,772.352233 1056.708496,768.679241 1038.969009,771.349851 1021.643975,778.929392 1013.036699,795.942357 1008.877383,811.544666 1009.646595,826.730553 1015.340218,840.523807 1008.916938,842.870799 1025.348837,862.688155 1087.249882,934.081356 1100.536777,933.786327 1141.842982,986.743466 1146.765480,993.060096 1146.873526,993.194777"/>
    <poly id="435804695#1" type="building.yes" color="255,230,230" fill="1" layer="-1.00" shape="1146.873526,993.194777 1161.219249,987.535119 1160.890778,986.798237 1157.703023,979.697046 1118.831227,892.931782 1128.892482,877.415163 1095.630799,797.630855 1088.459504,783.328108 1074.355785,772.352233 1056.708496,768.679241 1038.969009,771.349851 1021.643975,778.929392 1013.036699,795.942357 1008.877383,811.544666 1009.646595,826.730553 1015.340218,840.523807 1008.916938,842.870799 1025.348837,862.688155 1087.249882,934.081356 1100.536777,933.786327 1141.842982,986.743466 1146.765480,993.060096 1146.873526,993.194777"/>
    <poly id="435805204" type="building.yes" color="255,230,230" fill="1" layer="-1.00" shape="1034.845215,1010.280349 1055.043633,997.395887 986.996189,891.636919 958.331953,909.911140 981.782116,946.358642 990.248073,940.968712 1034.845215,1010.280349"/>
    <poly id="448349952" type="leisure.park" color="207,245,201" fill="1" layer="-2.00" shape="1303.562290,976.711453 1307.530794,981.183875 1310.542149,984.022892 1393.703570,912.539014 1390.569052,908.078719 1388.392176,905.850826 1303.562290,976.711453"/>
    <poly id="449295949" type="leisure.playground" color="207,245,201" fill="1" layer="-2.00" shape="1157.970948,1059.090736 1160.104972,1064.268695 1180.218374,1084.383232 1182.196072,1084.545057 1187.589077,1084.978319 1212.779307,1060.374547 1214.322311,1055.749143 1211.650533,1053.514025 1157.970948,1059.090736"/>
    <poly id="463338159" type="amenity.restaurant" color="237,199,199" fill="1" layer="-1.00" shape="1324.690739,1014.067205 1342.499713,1012.950001 1328.408396,996.650279 1317.622417,1005.900365 1324.690739,1014.067205"/>
    <poly id="463338159#1" type="building.yes" color="255,230,230" fill="1" layer="-1.00" shape="1324.690739,1014.067205 1342.499713,1012.950001 1328.408396,996.650279 1317.622417,1005.900365 1324.690739,1014.067205"/>
    <poly id="463344947" type="amenity.fuel" color="237,199,199" fill="1" layer="-1.00" shape="1305.755807,1052.361531 1307.300941,1057.697299 1315.666445,1054.801453 1319.406504,1060.490740 1328.447826,1052.080570 1327.965308,1050.587163 1326.769047,1050.270314 1305.755807,1052.361531"/>
    <poly id="463344947#1" type="building.roof" color="255,230,230" fill="1" layer="-1.00" shape="1305.755807,1052.361531 1307.300941,1057.697299 1315.666445,1054.801453 1319.406504,1060.490740 1328.447826,1052.080570 1327.965308,1050.587163 1326.769047,1050.270314 1305.755807,1052.361531"/>
    <poly id="463344948" type="amenity.fuel" color="237,199,199" fill="1" layer="-1.00" shape="692.329196,919.516156 707.310791,906.090524 700.681213,898.051594 713.676525,887.569836 732.621593,907.879151 717.833101,926.299321 707.013245,935.947560 692.329196,919.516156"/>
    <poly id="476359996" type="building.yes" color="255,230,230" fill="1" layer="-1.00" shape="486.648385,1051.846833 497.147677,1042.205252 501.975986,1047.411604 493.725200,1054.989495 486.648385,1051.846833"/>
    <poly id="476359996#1" type="shop.car_repair" color="237,199,255" fill="1" layer="-1.00" shape="486.648385,1051.846833 497.147677,1042.205252 501.975986,1047.411604 493.725200,1054.989495 486.648385,1051.846833"/>
    <poly id="476362992" type="building.yes" color="255,230,230" fill="1" layer="-1.00" shape="591.268724,1164.465858 595.306211,1171.734947 583.868652,1177.824406 572.280878,1184.155699 568.282166,1176.742961 591.268724,1164.465858"/>
    <poly id="476362992#1" type="shop.car_repair" color="237,199,255" fill="1" layer="-1.00" shape="591.268724,1164.465858 595.306211,1171.734947 583.868652,1177.824406 572.280878,1184.155699 568.282166,1176.742961 591.268724,1164.465858"/>
    <poly id="476977626" type="building.yes" color="255,230,230" fill="1" layer="-1.00" shape="1407.713226,1043.246486 1407.381988,1038.904481 1415.595505,1038.269232 1415.926747,1042.611238 1407.713226,1043.246486"/>
    <poly id="476977626#1" type="shop.yes" color="237,199,255" fill="1" layer="-1.00" shape="1407.713226,1043.246486 1407.381988,1038.904481 1415.595505,1038.269232 1415.926747,1042.611238 1407.713226,1043.246486"/>
    <poly id="476977627" type="building.apartments" color="255,230,230" fill="1" layer="-1.00" shape="1272.273226,1073.572916 1257.578339,1056.543310 1279.979054,1053.596016 1282.062070,1069.244620 1272.273226,1073.572916"/>
    <poly id="476983243" type="building.industrial" color="255,230,230" fill="1" layer="-1.00" shape="1401.587093,1001.061289 1397.020086,996.136531 1413.780625,980.705638 1418.356797,985.630521 1401.587093,1001.061289"/>
    <poly id="476991261" type="amenity.place_of_worship" color="237,199,199" fill="1" layer="-1.00" shape="623.764857,1173.957983 635.589740,1167.707732 620.250714,1138.964949 605.624038,1139.960788 623.764857,1173.957983"/>
    <poly id="476991261#1" type="building.yes" color="255,230,230" fill="1" layer="-1.00" shape="623.764857,1173.957983 635.589740,1167.707732 620.250714,1138.964949 605.624038,1139.960788 623.764857,1173.957983"/>
    <poly id="476992303" type="building.residential" color="255,230,230" fill="1" layer="-1.00" shape="680.917180,1272.994077 688.997706,1267.665343 683.489569,1259.398720 677.741612,1263.186287 676.476749,1266.318162 680.917180,1272.994077"/>
    <poly id="476992304" type="building.residential" color="255,230,230" fill="1" layer="-1.00" shape="680.917180,1272.994077 688.997706,1267.665343 695.970306,1265.393117 699.805384,1269.575453 686.227961,1282.222884 680.917180,1272.994077"/>
    <poly id="487890804" type="building.yes" color="255,230,230" fill="1" layer="-1.00" shape="941.526980,980.027214 948.391987,975.678924 962.903120,998.363619 956.065760,1002.701229 953.098962,998.065736 949.425827,1000.397226 945.177329,993.757510 948.831972,991.436844 941.526980,980.027214"/>
    <poly id="487898043" type="man_made.bridge" color="255,230,230" fill="1" layer="-1.00" shape="607.882372,1065.551031 603.484872,1068.515200 597.001321,1074.976407 591.856278,1082.056131 588.158163,1091.120350 586.999173,1098.934851 587.050823,1104.193515 588.825009,1113.282073 591.004290,1119.736490 595.549116,1124.273097 601.354025,1127.264013 580.853128,1125.622849 526.145555,1123.050027 520.430147,1122.722602 513.652569,1122.313119 518.689979,1115.076568 521.870124,1107.591063 523.393989,1099.903911 523.992455,1092.813352 523.596921,1082.225201 522.660663,1078.539877 519.295955,1075.429215 525.414812,1075.119156 542.169508,1073.400192 549.539489,1072.786682 594.126912,1067.158552 607.882372,1065.551031"/>
    <poly id="51574179" type="building.roof" color="255,230,230" fill="1" layer="-1.00" shape="1016.593398,1280.863396 1037.997236,1267.708062 1061.234079,1253.314759 1068.732987,1266.546280 1045.763869,1280.178102 1024.482225,1293.124471 1016.593398,1280.863396"/>
    <poly id="640636498" type="landuse.grass" color="194,194,130" fill="1" layer="-3.00" shape="1294.675046,985.245851 1301.949474,991.840550 1283.279202,1008.097673 1272.226209,1007.316122 1294.675046,985.245851"/>
    <poi id="4105523989" type="amenity.place_of_worship" color="237,199,199" layer="4.00" x="652.17" y="901.17"/>
    <poi id="4462706394" type="amenity.bench" color="237,199,199" layer="4.00" x="1067.77" y="1074.16"/>
    <poi id="4462706398" type="amenity.shelter" color="237,199,199" layer="4.00" x="1200.88" y="1049.69"/>
    <poi id="4699618050" type="shop.laundry" color="237,199,255" layer="4.00" x="593.92" y="1173.71"/>
    <poi id="4699618051" type="shop.yes" color="237,199,255" layer="4.00" x="589.99" y="1177.91"/>
    <poi id="4703949405" type="shop.convenience" color="237,199,255" layer="4.00" x="1266.92" y="1057.53"/>
    <poi id="4704082067" type="amenity.ice_cream" color="237,199,199" layer="4.00" x="680.15" y="1264.92"/>
    <poi id="4704082071" type="shop.bicycle" color="237,199,255" layer="4.00" x="686.34" y="1274.23"/>
    <poi id="5009637421" type="amenity.police" color="237,199,199" layer="4.00" x="1014.94" y="1077.31"/>
    <poi id="5630561121" type="amenity.bar" color="237,199,199" layer="4.00" x="1350.03" y="842.94"/>
    <poi id="6564208561" type="amenity.bicycle_rental" color="237,199,199" layer="4.00" x="1195.58" y="1091.93"/>
    <poi id="7502508244" type="amenity.clinic" color="237,199,199" layer="4.00" x="969.23" y="1274.85"/>
</additional>
